  33
        -39.59675540
 C          0.6752687951        1.5311471315        0.0003611231
 C         -0.6752628220        1.5311446392        0.0002024353
 N          1.0678747428        0.2142620642        0.0009575539
 N         -1.0678691887        0.2142613512        0.0005901820
 C          0.0000028955       -0.6243543526        0.0010427766
 H          1.3596507601        2.3549493240        0.0001146115
 H         -1.3596259664        2.3549628780       -0.0001643809
 C          2.4526005849       -0.2219435250       -0.0000616958
 C         -2.4525953824       -0.2219497398       -0.0000531554
 C          3.1481221395        0.3074501835       -1.2603909521
 C         -3.1507093517        0.3095354382        1.2579296658
 C         -3.1494235261        0.3096878498       -1.2587006230
 C          2.4906484348       -1.7497445380        0.0025581166
 H          2.6259571622       -0.0432455770       -2.1480760256
 H         -4.1779705134       -0.0438917129        1.2928034593
 H         -2.6282844285       -0.0395154242       -2.1475752777
 H          3.5214353506       -2.0945918569        0.0015733916
 H          3.1599519607        1.3949035571       -1.2744935191
 H         -3.1613198843        1.3970138254        1.2709509975
 H         -4.1762189946       -0.0449004029       -1.2954232537
 H          1.9807340077       -2.1374543895       -0.8738885694
 H          4.1748603497       -0.0472384699       -1.2976615380
 H         -2.6313350779       -0.0409071719        2.1473429881
 H         -3.1612719324        1.3971600059       -1.2709612461
 H          1.9835248142       -2.1343778948        0.8819847272
 C          3.1519945380        0.3117574951        1.2562635246
 C         -2.4906493515       -1.7497530362       -0.0001815391
 H          4.1791717986       -0.0419479413        1.2908260167
 H         -1.9820071619       -2.1359906573        0.8776538973
 H          3.1630354096        1.3992469144        1.2672167742
 H         -1.9822654551       -2.1358548250       -0.8782312720
 H         -3.5214351120       -2.0945953571       -0.0000764388
 H          2.6333720262       -0.0368096758        2.1468541224
  33
        -39.59611437
 C          0.6976887329        1.3821001470        0.6699249080
 C         -0.6530056513        1.3939222546        0.7024801022
 N          1.0661491436        0.2079696368        0.0586232854
 N         -1.0706063395        0.2335238667        0.0988389157
 C         -0.0163337008       -0.5260067818       -0.3015406220
 H          1.3964280757        2.1102023861        1.0285572285
 H         -1.3172223635        2.1321946277        1.1010485192
 C          2.4422318793       -0.1905313107       -0.1765187814
 C         -2.4496962876       -0.2108287280       -0.0207229651
 C          3.1090478316        0.8275851915       -1.1098644082
 C         -3.3952689119        0.9864115581       -0.1518192766
 C         -2.5682067815       -1.0913928703       -1.2666273890
 C          2.4530530955       -1.5712511338       -0.8316923388
 H          2.5617479703        0.8849079925       -2.0483432600
 H         -4.3900750314        0.6351200112       -0.4139821834
 H         -1.8469278384       -1.9004950872       -1.2099148611
 H          1.9701850929       -2.2959990996       -0.1832748532
 H          3.1264614881        1.8177309918       -0.6599483035
 H         -3.0502493047        1.6598495962       -0.9339156600
 H         -3.5718950643       -1.5009795830       -1.3426045133
 H          3.4768707605       -1.8838646438       -1.0200943049
 H          4.1322843460        0.5279171800       -1.3210144296
 H         -3.4707792164        1.5395441266        0.7815051809
 H         -2.3557391019       -0.5077554387       -2.1588120221
 H          1.9064795135       -1.5436894398       -1.7692035497
 C          3.1881129385       -0.2519700639        1.1621756551
 C         -2.8044958424       -1.0263308649        1.2297355535
 H          4.2050839186       -0.6027175274        1.0067716272
 H         -2.6787917835       -0.4215291493        2.1260692572
 H          3.2319388792        0.7271646563        1.6334312586
 H         -2.1486492844       -1.8906226852        1.3011590447
 H         -3.8351543576       -1.3679247862        1.1815081832
 H          2.6826769579       -0.9380784467        1.8385991636
  33
        -39.59537855
 C          0.6765355429        1.2362569065       -1.0271181112
 C         -0.6767761589        1.2361405738       -1.0271674513
 N          1.0693378059        0.2267391301       -0.1862653255
 N         -1.0694053599        0.2261656754       -0.1867159666
 C          0.0000347999       -0.4178972062        0.3495567674
 H          1.3516509394        1.8742368347       -1.5578409606
 H         -1.3523925451        1.8734116789       -1.5581093382
 C          2.4272868073       -0.1761912744        0.1457904586
 C         -2.4272379045       -0.1759358834        0.1467214233
 C          3.4604934662        0.6972987520       -0.5638884580
 C         -2.6002056117       -0.0405926297        1.6639374338
 C         -3.4608157403        0.6898549024       -0.5717872511
 C          2.6024762661       -1.6386825230       -0.2793692906
 H          3.3642021010        0.6164348703       -1.6447578221
 H         -3.5835343724       -0.3888322861        1.9684957404
 H         -3.3607502628        0.6021316382       -1.6517774255
 H          2.4885631030       -1.7348240496       -1.3572265582
 H          3.3550384408        1.7406794678       -0.2734244967
 H         -2.4872516528        0.9986933272        1.9657130559
 H         -4.4588030679        0.3585346886       -0.2955505500
 H          1.8417077397       -2.2452978902        0.2041900146
 H          4.4585761157        0.3670495945       -0.2866802557
 H         -1.8377444235       -0.6307929600        2.1647323893
 H         -3.3594086004        1.7354068878       -0.2878553877
 H          3.5867960673       -2.0028634477        0.0025915091
 C          2.5979795496       -0.0529958460        1.6642477228
 C         -2.5997035494       -1.6421158849       -0.2665546078
 H          3.5804397641       -0.4045121664        1.9676173851
 H         -1.8383514415       -2.2434863468        0.2225199752
 H          2.4852686715        0.9838271128        1.9744242740
 H         -2.4847412409       -1.7470083404       -1.3434694975
 H         -3.5836793141       -2.0054664854        0.0176382944
 H          1.8345487746       -0.6466642489        2.1591212545
  33
        -39.59530964
 C          0.6798358435       -1.2566652729        0.9619676012
 C         -0.6726499238       -1.2597125601        0.9676957152
 N          1.0678339678       -0.2428530589        0.1220386697
 N         -1.0712806038       -0.2466420249        0.1330439667
 C         -0.0050976560        0.4104762033       -0.3944082975
 H          1.3606843470       -1.8963756059        1.4835067652
 H         -1.3452600112       -1.9040229630        1.4940807487
 C          2.4338934523        0.1822148764       -0.1388297679
 C         -2.4358800814        0.1791787444       -0.1362670613
 C          2.5220175110        0.6488631908       -1.5941859329
 C         -2.6972458014        1.4672517715        0.6548852396
 C         -2.5602240767        0.4570756747       -1.6373399752
 C          3.4181291160       -0.9672402431        0.0884317445
 H          2.3273662239       -0.1828581605       -2.2668979947
 H         -1.9812909532        2.2278966899        0.3543618916
 H         -1.7948464313        1.1676467266       -1.9349317529
 H          3.1082466824       -1.8510698959       -0.4657804571
 H          1.7745124734        1.4153274142       -1.7738662095
 H         -2.5827951635        1.2859832618        1.7220414484
 H         -2.4157518542       -0.4607169577       -2.2027008603
 H          3.4975015179       -1.2206012053        1.1431941519
 H          3.5110182427        1.0478062118       -1.8028282332
 H         -3.7039846616        1.8320081779        0.4688128845
 H         -3.5421217185        0.8615937423       -1.8677399124
 H          4.4044727581       -0.6714589848       -0.2602198893
 C          2.7621834572        1.3479003584        0.8032813871
 C         -3.4432214362       -0.8966614320        0.2706791403
 H          3.7795573670        1.6940703932        0.6409010344
 H         -4.4383450642       -0.5946572682       -0.0464489314
 H          2.0743814165        2.1696084285        0.6199314606
 H         -3.4613598734       -1.0343962189        1.3496460757
 H         -3.2054864623       -1.8461462158       -0.2050962149
 H          2.6606586204        1.0366552783        1.8414433715
  33
        -39.59529514
 C          0.6714662208        1.0357441178       -1.2038212556
 C         -0.6809142535        1.0226990010       -1.2084201671
 N          1.0698845748        0.1497228977       -0.2348286873
 N         -1.0691606603        0.1286254913       -0.2424349382
 C          0.0034999441       -0.4166293621        0.3881715234
 H          1.3451067124        1.5991765187       -1.8148866372
 H         -1.3612535208        1.5734663712       -1.8236373629
 C          2.4356143319       -0.1261871749        0.1827034940
 C         -2.4339676220       -0.1672555546        0.1638562823
 C          3.4374782299        0.2865398695       -0.8966641229
 C         -2.5238145777       -1.6609463217        0.4882183244
 C         -2.7495856256        0.6582219282        1.4180257761
 C          2.5593306881       -1.6293482853        0.4478898909
 H          3.4702116687        1.3673717880       -1.0152194443
 H         -1.7698120455       -1.9152844480        1.2268172249
 H         -2.6526900960        1.7215520957        1.2062632094
 H          1.7987326511       -1.9323495059        1.1610818950
 H          4.4312477193       -0.0501964318       -0.6120998748
 H         -2.3396416193       -2.2508983178       -0.4064609848
 H         -3.7625599977        0.4613616529        1.7591600539
 H          3.5439160692       -1.8637774874        0.8434355574
 H          3.1817465926       -0.1679810757       -1.8518314549
 H         -3.5097266004       -1.9047198416        0.8747162716
 H         -2.0513186687        0.3982284905        2.2096155183
 H          2.4074800686       -2.1869141918       -0.4733395534
 C          2.7064320971        0.6547407045        1.4751858367
 C         -3.4259332539        0.1736416518       -0.9497302760
 H          3.7169349160        0.4681353546        1.8291370726
 H         -4.4135227888       -0.1886305125       -0.6752446804
 H          2.5877691183        1.7231702399        1.3042016160
 H         -3.1325667219       -0.3027060071       -1.8831921769
 H         -3.4941338925        1.2479366812       -1.1060261050
 H          1.9987133640        0.3461951503        2.2404111171
