  30
        -44.27485627
 N         -1.0868586089       -0.4800405685        0.1852890284
 C         -0.0000440557        0.2407056953       -0.0937776779
 N          1.0868286090       -0.4800954823        0.1849260942
 H         -0.0000052409        1.2229768779       -0.5236929021
 C          0.6800093748       -1.6951133645        0.6593315480
 C         -0.6799339299       -1.6950543213        0.6596029136
 C         -2.4285755088       -0.0599679919        0.0230872085
 C          2.4285408405       -0.0599877063        0.0227869771
 C         -3.3840606143       -0.9707537992       -0.4117621353
 C         -2.7781178354        1.2564141123        0.3014166009
 C          3.3838947461       -0.9705065999       -0.4129102848
 C          2.7782143828        1.2561310613        0.3021517633
 H          1.3670492232       -2.4499201315        0.9811578752
 H         -1.3668046756       -2.4498515437        0.9818083213
 C         -4.6946831740       -0.5560657732       -0.5681286756
 H         -3.1061592326       -1.9857596858       -0.6463347241
 C         -4.0921000371        1.6578462865        0.1400430156
 C          4.6945402557       -0.5558289581       -0.5690070122
 C          5.0498673249        0.7549012357       -0.2933621648
 C          4.0922707123        1.6575276460        0.1411969413
 C         -5.0498240605        0.7549594425       -0.2937394339
 H         -4.3698673885        2.6768510400        0.3582758886
 H          2.0407158046        1.9544009751        0.6639803280
 H          3.1058156174       -1.9852511127       -0.6484045508
 H          5.4393743472       -1.2574813021       -0.9097135850
 H          6.0734253078        1.0726898711       -0.4157136707
 H          4.3701940234        2.6762508748        0.3605609639
 H         -6.0732412240        1.0729131703       -0.4167398847
 H         -5.4395378953       -1.2578995262       -0.9084529215
 H         -2.0405229484        1.9549329210        0.6625848769
