  30
        -44.20718056
 N         -1.0885386160        0.4799949687        0.1822993358
 C          0.0000960138       -0.2381643044       -0.0972026933
 N          1.0885797330        0.4799390004        0.1830213445
 H          0.0003136386       -1.2210933545       -0.5244856346
 C          0.6801012927        1.6926381792        0.6582547556
 C         -0.6802813311        1.6927018552        0.6577483270
 C         -2.4322577024        0.0595651059        0.0209459225
 C          2.4323479100        0.0596139483        0.0216239449
 C         -3.3887150533        0.9714225816       -0.4099025922
 C         -2.7809938025       -1.2574426439        0.2975353603
 C          3.3883794620        0.9713057649       -0.4104507939
 C          2.7814371588       -1.2570840938        0.2991437873
 H          1.3673625760        2.4473322088        0.9806140226
 H         -1.3677266881        2.4474825773        0.9795016704
 C         -4.6997759997        0.5571958907       -0.5634451887
 H         -3.1080817892        1.9866589352       -0.6439373271
 C         -4.0955495637       -1.6583579409        0.1400037865
 C          4.6993593227        0.5571017664       -0.5646920227
 C          5.0539127675       -0.7540113941       -0.2900585925
 C          4.0959374141       -1.6579457512        0.1410111171
 C         -5.0540275938       -0.7541215561       -0.2893580920
 H         -4.3707474310       -2.6777781442        0.3588249293
 H          2.0399991920       -1.9537876947        0.6591024247
 H          3.1073877757        1.9863262857       -0.6449844499
 H          5.4428794087        1.2607648752       -0.9035333052
 H          6.0773392364       -1.0714451187       -0.4105745339
 H          4.3714743775       -2.6771397107        0.3604830672
 H         -6.0775353933       -1.0715406408       -0.4092644553
 H         -5.4436720697        1.2610805070       -0.9010486404
 H         -2.0392102423       -1.9544285487        0.6562580714
