  16
        -20.76080461
 C          0.6808997077       -1.1934258741        0.0000093703
 C         -0.6809427927       -1.1933930134       -0.0000082304
 N          1.0860528183        0.1066117391        0.0000304936
 N         -1.0860325536        0.1066623624       -0.0000664540
 C          0.0000281986        0.8745334577       -0.0000046543
 H          1.3708985209       -2.0126557092        0.0000142029
 H         -1.3709880865       -2.0125829092        0.0000049288
 C          2.4535597342        0.5517568302       -0.0000015051
 C         -2.4535754185        0.5517556666        0.0000348520
 H          2.9691475752        0.1779807251        0.8853410463
 H          2.4908340091        1.6385760002       -0.0012095846
 H          2.9697079732        0.1759245133       -0.8841170081
 H          0.0000533481        1.9476922912       -0.0001487847
 H         -2.9701453815        0.1746022049       -0.8832927568
 H         -2.4908509889        1.6386599922       -0.0027197720
 H         -2.9685742785        0.1792394841        0.8862719585
  16
        -20.76045159
 C          0.6792068743       -1.1972288378       -0.0009712551
 C         -0.6835002355       -1.1945010974        0.0010217886
 N          1.0876716317        0.0998543689       -0.0031246578
 N         -1.0850055308        0.1061205140        0.0011410409
 C          0.0021043320        0.8714985287       -0.0013346305
 H          1.3641676171       -2.0206589887       -0.0012213011
 H         -1.3751484877       -2.0122394255        0.0020264724
 C          2.4509590540        0.5611882641        0.0025538341
 C         -2.4512687933        0.5548297157        0.0001010600
 H          3.1220996661       -0.2886879117       -0.0966126582
 H          2.6734342860        1.0793048058        0.9363106312
 H          2.6228576490        1.2480280143       -0.8261621776
 H          0.0072396426        1.9446403750       -0.0022701896
 H         -2.9616652264        0.1995886212       -0.8959168370
 H         -2.4859215635        1.6415524463        0.0220468620
 H         -2.9743366940        0.1630102885        0.8730297575
  16
        -20.76008041
 C          0.6817083549       -1.1980981087        0.0008752784
 C         -0.6818413877       -1.1980086297       -0.0007896278
 N          1.0866525275        0.0996095336       -0.0003629635
 N         -1.0865822420        0.0998011611       -0.0032511634
 C          0.0000643455        0.8687878483       -0.0024089761
 H          1.3682565109       -2.0201098869        0.0020419641
 H         -1.3685801262       -2.0198581283       -0.0007134094
 C          2.4489488555        0.5636206621        0.0015246868
 C         -2.4489416456        0.5634771025        0.0032535678
 H          3.1229855649       -0.2893222633       -0.0226450063
 H          2.6500857408        1.1480611078        0.8999667112
 H          2.6384709825        1.1899829919       -0.8705010552
 H          0.0002050916        1.9419376012       -0.0041576843
 H         -2.6157207820        1.2620527729       -0.8163834178
 H         -2.6744609773        1.0690454596        0.9432682198
 H         -3.1214861394       -0.2836051512       -0.1099061479
