  16
  -28.9198505100000       5.249679252579040E-002 !md1
 N         -1.0908930452       -1.1547165368        0.0001213406
 C          0.0000005132       -1.9193810159        0.0000534733
 N          1.0908988900       -1.1547105522        0.0000011607
 C          0.6897299184        0.1541133104       -0.0000066638
 C         -0.6897291102        0.1541059129        0.0000380037
 C         -2.4577399225       -1.6006202793       -0.0001475097
 C          2.4577591694       -1.6005955023        0.0000034745
 H         -2.9685808573       -1.2236385256       -0.8862089590
 H         -2.9711149226       -1.2164336181        0.8812998941
 H         -2.4863205471       -2.6870954673        0.0041887314
 H          2.9699375887       -1.2197584423       -0.8836179844
 H          2.4863618761       -2.6870846669       -0.0002889263
 H          2.9698015315       -1.2202405611        0.8839141788
 H          0.0000688255       -2.9952641949        0.0000655703
 Cl         1.7888167635        1.4597262303       -0.0000383316
 Cl        -1.7888304047        1.4597194048        0.0000284055
  16
  -28.9198505100000       5.249679252579040E-002 !md3
 N         -1.0908899708       -1.1547076582        0.0000566849
 C         -0.0000037318       -1.9193791483        0.0000450945
 N          1.0908989299       -1.1547033307        0.0000371066
 C          0.6897375894        0.1541136888        0.0000248303
 C         -0.6897274222        0.1541122195        0.0000075662
 C         -2.4577371861       -1.6006344358       -0.0000822699
 C          2.4577505226       -1.6006151407       -0.0000316172
 H         -2.4862892264       -2.6871143035        0.0031694824
 H         -2.9689456153       -1.2227630465       -0.8855470086
 H         -2.9707574344       -1.2173505025        0.8819725777
 H          2.9694474113       -1.2212495805       -0.8845672947
 H          2.4863231501       -2.6870986859        0.0014377967
 H          2.9702714696       -1.2188084440        0.8829606554
 H          0.0001048392       -2.9952611645        0.0000238783
 Cl         1.7888089690        1.4597386794       -0.0000116040
 Cl        -1.7888236021        1.4597128496        0.0000025132
  16
  -28.9198505000000       5.249623701033321E-002 !mtd4
 N         -1.0908882001       -1.1547088756       -0.0001037028
 C          0.0000045257       -1.9193799077        0.0000148730
 N          1.0908946141       -1.1547036465        0.0001403189
 C          0.6897291459        0.1541079541        0.0000868093
 C         -0.6897313222        0.1541113141       -0.0000939932
 C         -2.4577378485       -1.6006505262        0.0001412180
 C          2.4577461947       -1.6006290883       -0.0001813526
 H         -2.9701793527       -1.2194234552       -0.8831185572
 H         -2.9695252682       -1.2207046876        0.8843817094
 H         -2.4863012215       -2.6871372285       -0.0007061039
 H          2.4863367180       -2.6870587032        0.0040191604
 H          2.9711075762       -1.2165986695        0.8813080414
 H          2.9686022544       -1.2235749836       -0.8861777698
 H          0.0000240617       -2.9952608191        0.0000350678
 Cl         1.7888157281        1.4597462601        0.0001393674
 Cl        -1.7888237269        1.4597217653       -0.0001354940
  16
  -28.9198504600000       5.249401500748522E-002 !md5
 N         -1.0908854734       -1.1547136069       -0.0001535198
 C          0.0000167603       -1.9193751563       -0.0000212717
 N          1.0909009999       -1.1546869467        0.0001132331
 C          0.6897271442        0.1541358731        0.0000501399
 C         -0.6897363816        0.1541034314       -0.0000651053
 C         -2.4577373224       -1.6006368181        0.0001127958
 C          2.4577430091       -1.6006204999       -0.0000607843
 H         -2.9683813610       -1.2243634614        0.8865950496
 H         -2.4863031702       -2.6871124590       -0.0050649281
 H         -2.9713219994       -1.2157569873       -0.8809106261
 H          2.9683302651       -1.2247650210       -0.8867490902
 H          2.4862926197       -2.6870862432        0.0056077864
 H          2.9713880379       -1.2153438890        0.8807475167
 H          0.0000372658       -2.9952570099       -0.0000613289
 Cl         1.7888174652        1.4597158102        0.0000437352
 Cl        -1.7888292589        1.4597294464       -0.0000378360
  16
  -28.9198504300000       5.249234856711941E-002 !mtd12
 N         -1.0909109870       -1.1546713337        0.0001883265
 C         -0.0000192899       -1.9193924805        0.0001259210
 N          1.0908865963       -1.1547320762       -0.0001105056
 C          0.6897737324        0.1540930601       -0.0000889651
 C         -0.6897181327        0.1541092305       -0.0000146731
 C         -2.4577293258       -1.6007174523       -0.0003116808
 C          2.4577713875       -1.6006507075        0.0001315368
 H         -2.9719948750       -1.2144188944        0.8796688930
 H         -2.4861859097       -2.6871364903        0.0066503390
 H         -2.9678371298       -1.2260078356       -0.8877696451
 H          2.9687504222       -1.2234657572        0.8859367039
 H          2.9709572225       -1.2167375641       -0.8814688397
 H          2.4863587636       -2.6870579066       -0.0040090876
 H         -0.0000118130       -2.9952679915       -0.0000029258
 Cl         1.7887160664        1.4597702453       -0.0001484333
 Cl        -1.7887340242        1.4597436816        0.0001994438
  16
  -28.9198503900000       5.249012672885717E-002 !mtd10
 N         -1.0908780702       -1.1547209429        0.0001746706
 C          0.0000052943       -1.9193693557        0.0001200129
 N          1.0909069780       -1.1546957229        0.0000005239
 C          0.6897308655        0.1541181480       -0.0000220396
 C         -0.6897211531        0.1541493311        0.0000567053
 C         -2.4577376554       -1.6005386504       -0.0003459710
 C          2.4577501532       -1.6005963606        0.0000872469
 H         -2.9695191135       -1.2220005288        0.8845292731
 H         -2.4864460167       -2.6871742244       -0.0028804153
 H         -2.9700800245       -1.2177793545       -0.8831024681
 H          2.4863460580       -2.6870882282        0.0006455672
 H          2.9700003780       -1.2195704594        0.8835851348
 H          2.9697944239       -1.2205014822       -0.8839393793
 H          0.0000631140       -2.9952520985        0.0003023334
 Cl         1.7888593408        1.4597475152       -0.0002089897
 Cl        -1.7888845949        1.4596421004        0.0001994713
  16
  -28.9198502700000       5.248346177831560E-002 !md2
 N         -1.0909250007       -1.1546620552        0.0003228547
 C         -0.0000408041       -1.9193800512        0.0000390063
 N          1.0908671563       -1.1547605737       -0.0002292352
 C          0.6897388419        0.1540992355        0.0000149274
 C         -0.6897264217        0.1541235640        0.0001322593
 C         -2.4577370563       -1.6007232527       -0.0000223426
 C          2.4577683702       -1.6005138912       -0.0000900570
 H         -2.9663538444       -1.2315198152       -0.8907353129
 H         -2.9734757429       -1.2089736741        0.8767082322
 H         -2.4861654317       -2.6871432509        0.0135899858
 H          2.9681155902       -1.2250290373        0.8869184713
 H          2.9715657497       -1.2147558744       -0.8806703127
 H          2.4864559882       -2.6870199672       -0.0062738066
 H         -0.0001247947       -2.9952653164        0.0000360092
 Cl         1.7888242964        1.4596881572        0.0002376490
 Cl        -1.7888029340        1.4597668577       -0.0002875045
  16
  -28.9198502100000       5.248012962030946E-002 !gc
 N         -1.0908750784       -1.1547113743        0.0002767958
 C          0.0000134086       -1.9193886330       -0.0000076705
 N          1.0908905531       -1.1546744404       -0.0002957650
 C          0.6897075511        0.1541348696       -0.0001192006
 C         -0.6897604717        0.1541161349        0.0001167845
 C         -2.4577536938       -1.6005672752       -0.0002467583
 C          2.4577597035       -1.6005528148        0.0002673841
 H         -2.4864241498       -2.6869936448        0.0114197004
 H         -2.9665748722       -1.2296903213       -0.8900717192
 H         -2.9730849491       -1.2102952051        0.8773476279
 H          2.4863605019       -2.6869914473       -0.0120518547
 H          2.9664018463       -1.2302734949        0.8904355501
 H          2.9732976953       -1.2097943193       -0.8769751770
 H         -0.0001179139       -2.9952634709       -0.0000098054
 Cl         1.7888804466        1.4596903216       -0.0001074039
 Cl        -1.7888711777        1.4596923297        0.0001086462
  16
  -28.9198502100000       5.248012962030946E-002 !md2
 N         -1.0908567787       -1.1547004577        0.0002164320
 C          0.0000575964       -1.9193229706        0.0003254577
 N          1.0909646043       -1.1546214022        0.0005361912
 C          0.6897608583        0.1541891385        0.0000907352
 C         -0.6896621426        0.1540952958        0.0000970575
 C         -2.4577144539       -1.6006296819       -0.0005596339
 C          2.4577113320       -1.6008125854       -0.0003409348
 H         -2.4861894954       -2.6871637041       -0.0064997464
 H         -2.9707439883       -1.2150773161       -0.8816984652
 H         -2.9689832465       -1.2250972017        0.8859682006
 H          2.9738521935       -1.2093089039        0.8762700754
 H          2.9660319811       -1.2314881573       -0.8911719750
 H          2.4860664337       -2.6872836559        0.0130304902
 H          0.0002477583       -2.9952057892        0.0009146787
 Cl         1.7889304215        1.4597758711       -0.0002591907
 Cl        -1.7890329265        1.4596946981        0.0001836606
  16
  -28.9193324700000       3.034296871345198E-002 !gc
 N         -1.0976020135       -1.1545731733       -0.0010100883
 C         -0.0049225680       -1.9195993330       -0.0003026832
 N          1.0858196074       -1.1563223239        0.0004104716
 C          0.6848127098        0.1517429314        0.0001421396
 C         -0.6955265420        0.1534042918       -0.0003417465
 C         -2.4555411424       -1.6332752328        0.0008697171
 C          2.4522010210       -1.6030267417       -0.0001276142
 H         -2.6258007673       -2.2751421474       -0.8628659040
 H         -3.1315536946       -0.7833389384       -0.0433589719
 H         -2.6506449507       -2.2004516656        0.9108225827
 H          2.9602014618       -1.2357050865       -0.8919341529
 H          2.4802253379       -2.6894454117        0.0156648652
 H          2.9688277342       -1.2094476717        0.8752295663
 H         -0.0101252502       -2.9956453042       -0.0002825689
 Cl         1.7834908410        1.4581779227        0.0002148276
 Cl        -1.7721547106        1.4788197358       -0.0001522951
  16
  -28.9193318200000       3.032210518707435E-002 !gc
 N         -1.0975761110       -1.1545535197       -0.0012540455
 C         -0.0049128846       -1.9196052772       -0.0001665153
 N          1.0858367719       -1.1563256880        0.0010119843
 C          0.6848657797        0.1517315311        0.0003358947
 C         -0.6954818639        0.1534294824       -0.0004313704
 C         -2.4555294819       -1.6332287802        0.0009879611
 C          2.4522179759       -1.6030878443       -0.0006289674
 H         -2.6530365457       -2.1930409249        0.9149556211
 H         -2.6234979086       -2.2820454638       -0.8580131513
 H         -3.1314261818       -0.7836839898       -0.0518820188
 H          2.4804947634       -2.6888701199        0.0408757842
 H          2.9758477095       -1.1884795586        0.8605741231
 H          2.9528926237       -1.2577415566       -0.9053793705
 H         -0.0101007043       -2.9956446636       -0.0001130580
 Cl         1.7834661011        1.4582295433        0.0003136923
 Cl        -1.7721943240        1.4787733678       -0.0002798614
  16
  -28.9193316900000       3.031793420358119E-002 !gc
 N         -1.0857826555       -1.1563063861       -0.0000456226
 C          0.0049678892       -1.9196109252       -0.0004094772
 N          1.0976275049       -1.1545343371       -0.0008167158
 C          0.6955349203        0.1534522227       -0.0002792901
 C         -0.6847889212        0.1517767561        0.0000281541
 C         -2.4521737980       -1.6030388030        0.0001915404
 C          2.4555435865       -1.6333367737        0.0008522938
 H         -2.9644484144       -1.2221081289        0.8837129909
 H         -2.4801200113       -2.6895762900        0.0007088450
 H         -2.9645972808       -1.2230310560       -0.8836666601
 H          2.6475029923       -2.2095089194        0.9057845807
 H          3.1317384210       -0.7831194647       -0.0329878662
 H          2.6287607426       -2.2668826518       -0.8684991885
 H          0.0099020932       -2.9956537291       -0.0004198667
 Cl         1.7721283341        1.4788555467       -0.0000946072
 Cl        -1.7835216963        1.4581416513        0.0001737603
  16
  -28.9193313800000       3.030799032735251E-002 !gc
 N         -1.0976192550       -1.1545851118        0.0007758791
 C         -0.0049330679       -1.9196087566        0.0005864038
 N          1.0858111486       -1.1563271653        0.0003451895
 C          0.6847663835        0.1517421052        0.0001383921
 C         -0.6955565576        0.1534010259        0.0002418293
 C         -2.4555142837       -1.6333847145       -0.0008481488
 C          2.4521846107       -1.6030666520       -0.0005735027
 H         -3.1316713719       -0.7830861746        0.0319812229
 H         -2.6289524420       -2.2660825849        0.8690688881
 H         -2.6471619614       -2.2103871231       -0.9053262832
 H          2.9686993012       -1.2108824091        0.8755090476
 H          2.9603300261       -1.2344696760       -0.8917074299
 H          2.4801540921       -2.6895234881        0.0137308395
 H         -0.0101361058       -2.9956621261        0.0005630767
 Cl         1.7834412428        1.4581814751       -0.0000690593
 Cl        -1.7720728209        1.4789040833       -0.0000439830
  16
  -28.9193312000000       3.030221796047045E-002 !gc
 N         -1.0858400757       -1.1562381501        0.0010368984
 C          0.0048759980       -1.9196232641       -0.0000006603
 N          1.0975675808       -1.1545525412       -0.0010685194
 C          0.6955286477        0.1533976711       -0.0004127570
 C         -0.6848324167        0.1518003044        0.0004554249
 C         -2.4521530501       -1.6032837476       -0.0008869976
 C          2.4555280150       -1.6332299991        0.0009066940
 H         -2.9524031426       -1.2587859075       -0.9061711842
 H         -2.9764089245       -1.1879998722        0.8596667740
 H         -2.4801977616       -2.6889891582        0.0417488385
 H          3.1315086266       -0.7835321859       -0.0478736088
 H          2.6244531897       -2.2789086048       -0.8602141903
 H          2.6521018158       -2.1965064247        0.9130170590
 H          0.0098927215       -2.9956514864        0.0000017993
 Cl         1.7721340542        1.4787794843       -0.0004042186
 Cl        -1.7834407305        1.4582734680        0.0003908179
  16
  -28.9193308300000       3.029035599206567E-002 !gc
 N         -1.0976307040       -1.1545963184        0.0005160817
 C         -0.0049354875       -1.9196055481        0.0003271770
 N          1.0858052843       -1.1563272100        0.0001419285
 C          0.6847520380        0.1517428736        0.0000446705
 C         -0.6955707811        0.1533902195        0.0001608193
 C         -2.4555147903       -1.6334428075       -0.0005490293
 C          2.4521669218       -1.6030808604       -0.0002616506
 H         -2.6316575768       -2.2577088887        0.8749151967
 H         -2.6443895075       -2.2190947466       -0.8999930788
 H         -3.1317764118       -0.7828774167        0.0221741609
 H          2.9626638668       -1.2278680343       -0.8873049003
 H          2.4800923563       -2.6895923081        0.0060690167
 H          2.9663842023       -1.2173267439        0.8800270289
 H         -0.0101408976       -2.9956612561        0.0003192244
 Cl         1.7834313827        1.4581809119       -0.0000650430
 Cl        -1.7720370269        1.4789369183        0.0000071067
  16
  -28.9193307500000       3.028779185274055E-002 !md4
 N         -1.0976575708       -1.1545410681       -0.0003327747
 C         -0.0049918043       -1.9196450965       -0.0004167461
 N          1.0858184317       -1.1564174961       -0.0003089391
 C          0.6848039309        0.1517010285        0.0002197240
 C         -0.6955316571        0.1533979098       -0.0002371586
 C         -2.4554715340       -1.6336151397        0.0005187357
 C          2.4521613124       -1.6031719492        0.0003449059
 H         -2.6311105556       -2.2585633433       -0.8745615640
 H         -3.1318979335       -0.7832131552       -0.0231532003
 H         -2.6446419558       -2.2186529689        0.9002627238
 H          2.4802852444       -2.6896902943       -0.0099218754
 H          2.9613258888       -1.2313892479        0.8896105320
 H          2.9677183617       -1.2139743591       -0.8775228385
 H         -0.0102934603       -2.9956968459       -0.0000110051
 Cl         1.7832967293        1.4582738740        0.0000360979
 Cl        -1.7719274209        1.4790018852       -0.0000617625
  16
  -28.9193303400000       3.027465404497767E-002 !gc
 N         -1.0976319662       -1.1545833458       -0.0002527520
 C         -0.0049397696       -1.9196024206       -0.0000492917
 N          1.0858034057       -1.1563287729        0.0001586867
 C          0.6847540008        0.1517423667        0.0000585183
 C         -0.6955713791        0.1533922373       -0.0001001846
 C         -2.4555052398       -1.6334615928        0.0001988589
 C          2.4521608858       -1.6030878266       -0.0000816007
 H         -2.6413537993       -2.2285007385        0.8940135509
 H         -2.6345523083       -2.2486196622       -0.8812113471
 H         -3.1318237592       -0.7827475484       -0.0117851100
 H          2.9660742588       -1.2180186602        0.8806876589
 H          2.9629647361       -1.2271911399       -0.8866532831
 H          2.4800742479       -2.6896049489        0.0054316808
 H         -0.0101579654       -2.9956577123       -0.0000332861
 Cl         1.7834303948        1.4581833022        0.0000692137
 Cl        -1.7720364043        1.4789431721       -0.0000537500
  16
  -28.9193301700000       3.026920833275461E-002 !gc
 N         -1.0976342645       -1.1545849808       -0.0001315586
 C         -0.0049408752       -1.9196021305        0.0000247195
 N          1.0858026637       -1.1563290000        0.0001622579
 C          0.6847499559        0.1517425681        0.0000557190
 C         -0.6955746008        0.1533907670       -0.0000348224
 C         -2.4555026098       -1.6334767732        0.0000589219
 C          2.4521575214       -1.6030955081       -0.0001120829
 H         -2.6364813050       -2.2429460225       -0.8849079316
 H         -3.1318456885       -0.7827140021       -0.0050638215
 H         -2.6393880225       -2.2342696073        0.8904174615
 H          2.9662739267       -1.2173814826        0.8802521992
 H          2.9627622106       -1.2278541342       -0.8870803493
 H          2.4800649200       -2.6896082343        0.0061836246
 H         -0.0101583091       -2.9956580599        0.0000255222
 Cl         1.7834248584        1.4581853782        0.0000329728
 Cl        -1.7720266476        1.4789524995       -0.0000376187
  16
  -28.9193301500000       3.026856772519202E-002 !gc
 N         -1.0857694625       -1.1563404449        0.0001385152
 C          0.0050039108       -1.9195998310        0.0000322270
 N          1.0976506560       -1.1545257177       -0.0000757113
 C          0.6955361773        0.1534706880       -0.0000340237
 C         -0.6847778925        0.1517599836        0.0000531117
 C         -2.4521694479       -1.6030267751       -0.0001413754
 C          2.4555288282       -1.6334489534        0.0000630039
 H         -2.4801641342       -2.6895339201        0.0056891529
 H         -2.9628530315       -1.2273643531       -0.8868809270
 H         -2.9661532149       -1.2176622134        0.8804536826
 H          2.6390458033       -2.2354693729        0.8896504398
 H          3.1319378983       -0.7827468131       -0.0036780202
 H          2.6369183009       -2.2417599422       -0.8856386006
 H          0.0099394476       -2.9956497672        0.0000308930
 Cl         1.7720887118        1.4789154491       -0.0000354515
 Cl        -1.7835073543        1.4581301009        0.0000304204
  16
  -28.9193301400000       3.026824742643796E-002 !gc
 N         -1.0857764509       -1.1563384721        0.0001230728
 C          0.0050024438       -1.9195925673        0.0000770951
 N          1.0976509628       -1.1545270905        0.0000546537
 C          0.6955419098        0.1534653915        0.0000063837
 C         -0.6847759253        0.1517576901        0.0000426052
 C         -2.4521702205       -1.6030460012       -0.0001609151
 C          2.4555267163       -1.6334585876       -0.0000465180
 H         -2.4801399464       -2.6895511305        0.0055399088
 H         -2.9628871803       -1.2272775481       -0.8868374362
 H         -2.9661286539       -1.2177891956        0.8804976142
 H          3.1319491665       -0.7827530936        0.0024289669
 H          2.6386636558       -2.2365460114       -0.8889693929
 H          2.6372827394       -2.2406893782        0.8863310310
 H          0.0099744751       -2.9956437379        0.0000632196
 Cl         1.7720792149        1.4789204703       -0.0000332752
 Cl        -1.7834975797        1.4581365420        0.0000175158
  16
  -28.9193301200000       3.026760683921169E-002 !gc
 N         -1.0976352702       -1.1545862425       -0.0000080413
 C         -0.0049433180       -1.9196020133        0.0000896410
 N          1.0858022074       -1.1563303561        0.0001770055
 C          0.6847450247        0.1517440806        0.0000634483
 C         -0.6955761333        0.1533895187       -0.0000034005
 C         -2.4554984772       -1.6334896755       -0.0000559230
 C          2.4521544217       -1.6031037593       -0.0001621466
 H         -3.1318392404       -0.7827319444       -0.0005642961
 H         -2.6380977909       -2.2382603817        0.8878463605
 H         -2.6377388798       -2.2390566165       -0.8874848621
 H          2.4800564403       -2.6896132664        0.0065274512
 H          2.9664256900       -1.2170651376        0.8799678987
 H          2.9626098027       -1.2281959447       -0.8873579278
 H         -0.0101573016       -2.9956606781        0.0000949587
 Cl         1.7834177662        1.4581889787        0.0000205270
 Cl        -1.7720171912        1.4789613040       -0.0000365264
  16
  -28.9193301000000       3.026696626542881E-002 !md1
 N         -1.0976560789       -1.1545797365       -0.0002638644
 C         -0.0049416947       -1.9196187513       -0.0004069291
 N          1.0858148758       -1.1563914766       -0.0004749835
 C          0.6847469449        0.1516892524       -0.0001492937
 C         -0.6955685484        0.1533627367       -0.0000742826
 C         -2.4554856727       -1.6336695478        0.0004375520
 C          2.4521190281       -1.6031607757        0.0005256488
 H         -3.1319642854       -0.7830156131       -0.0061773047
 H         -2.6395334672       -2.2330758854        0.8916798370
 H         -2.6362006182       -2.2445413530       -0.8836099197
 H          2.9677242311       -1.2141798184       -0.8774942633
 H          2.4799928763       -2.6896290687       -0.0097189615
 H          2.9611844102       -1.2312317008        0.8897675563
 H         -0.0104786789       -2.9956657186       -0.0006798696
 Cl         1.7833273135        1.4582306343        0.0000792274
 Cl        -1.7719044513        1.4790762685       -0.0000071324
  16
  -28.9193299800000       3.026312310775757E-002 !gc
 N         -1.0857820078       -1.1563324451        0.0003825015
 C          0.0049941428       -1.9195934010        0.0002761711
 N          1.0976457222       -1.1545288245        0.0001752481
 C          0.6955410747        0.1534606580        0.0000539844
 C         -0.6847804005        0.1517595629        0.0001267249
 C         -2.4521681655       -1.6030709113       -0.0004327725
 C          2.4555249596       -1.6334513095       -0.0002523667
 H         -2.9601937846       -1.2350188469       -0.8919204863
 H         -2.9687961716       -1.2102132114        0.8752504580
 H         -2.4801494467       -2.6894883588        0.0144694248
 H          2.6396924913       -2.2331084648       -0.8913199988
 H          2.6362630422       -2.2440932813        0.8839480636
 H          3.1319394258       -0.7827596735        0.0061430180
 H          0.0099733659       -2.9956431824        0.0002828651
 Cl         1.7720790037        1.4789147586       -0.0000481507
 Cl        -1.7834890094        1.4581499127       -0.0000054159
  16
  -28.9188012900000       1.729595884433851E-002 !gc
 N         -1.0925978531       -1.1561636378        0.0002520044
 C         -0.0000578361       -1.9198608814        0.0011067117
 N          1.0924320551       -1.1562178112        0.0017807575
 C          0.6905806715        0.1510411682        0.0006198326
 C         -0.6906448421        0.1510689089        0.0000978904
 C         -2.4502025149       -1.6353768628       -0.0007599317
 C          2.4501568192       -1.6349528905       -0.0018504590
 H         -2.6345909415       -2.2326107596       -0.8933841583
 H         -3.1270829841       -0.7850109292        0.0083659222
 H         -2.6301176424       -2.2486225613        0.8817623935
 H          2.6539276095       -2.1746522495       -0.9267184764
 H          2.6118256395       -2.3031557276        0.8432596553
 H          3.1260331806       -0.7871455992        0.0738642232
 H         -0.0001476881       -2.9960918662        0.0011427173
 Cl         1.7670890878        1.4769744282        0.0001055192
 Cl        -1.7669624246        1.4771824584       -0.0003095063
  16
  -28.9188003700000       1.727912874314877E-002 !gc
 N         -1.0925814199       -1.1561772678        0.0005070334
 C         -0.0000456854       -1.9198682926        0.0011388561
 N          1.0924449654       -1.1562203756        0.0015905912
 C          0.6905833560        0.1510399451        0.0005619507
 C         -0.6906344752        0.1510666254        0.0001797851
 C         -2.4501794575       -1.6353969707       -0.0009524146
 C          2.4501471816       -1.6350361901       -0.0017414966
 H         -2.6378829412       -2.2227674500       -0.8994721629
 H         -3.1270043845       -0.7851925700        0.0198010510
 H         -2.6268120282       -2.2583737315        0.8753447329
 H          2.6138141673       -2.2971066766        0.8478741500
 H          3.1261909789       -0.7867738478        0.0663727690
 H          2.6516328986       -2.1815660067       -0.9230506955
 H         -0.0001182133       -2.9961039944        0.0011812358
 Cl         1.7670338154        1.4770198360        0.0000563821
 Cl        -1.7669310708        1.4771990841       -0.0002698676
  16
  -28.9187990300000       1.725464462847572E-002 !gc
 N         -1.0925770039       -1.1561998967        0.0003044866
 C         -0.0000243551       -1.9198586470       -0.0006120740
 N          1.0924704567       -1.1562084261       -0.0014405363
 C          0.6905771582        0.1510460065       -0.0004865120
 C         -0.6906353215        0.1510444188        0.0001025968
 C         -2.4501663288       -1.6354267190        0.0000838477
 C          2.4501300940       -1.6351477554        0.0013619655
 H         -2.6279776969       -2.2528808836        0.8800832851
 H         -2.6366644844       -2.2284570111       -0.8949283636
 H         -3.1270150669       -0.7851166239        0.0147605697
 H          3.1263471254       -0.7864974578       -0.0605249417
 H          2.6153342052       -2.2920296403       -0.8519625328
 H          2.6499385913       -2.1871564162        0.9197330465
 H         -0.0001003400       -2.9960982362       -0.0006346716
 Cl         1.7669754362        1.4770689350       -0.0001518062
 Cl        -1.7668891960        1.4772142882        0.0002627001
  16
  -28.9187989500000       1.725318398823615E-002 !gc
 N         -1.0925523114       -1.1562087613        0.0008295590
 C         -0.0000013708       -1.9198681863        0.0010868223
 N          1.0924941493       -1.1562080137        0.0012258465
 C          0.6905951646        0.1510459443        0.0004366705
 C         -0.6906135645        0.1510404805        0.0002719303
 C         -2.4501620712       -1.6353619073       -0.0011468561
 C          2.4501402794       -1.6352043175       -0.0014525262
 H         -2.6228167093       -2.2701323135        0.8673412673
 H         -2.6420050648       -2.2105802938       -0.9067516279
 H         -3.1268399823       -0.7855068547        0.0336676619
 H          2.6469765733       -2.1955862836       -0.9153397850
 H          2.6181190731       -2.2842766000        0.8573313748
 H          3.1265379746       -0.7860509789        0.0507158480
 H         -0.0000461859       -2.9961079728        0.0011395408
 Cl         1.7669446791        1.4771097224       -0.0000182296
 Cl        -1.7669055068        1.4771787753       -0.0001832597
  16
  -28.9187986600000       1.724789020377699E-002 !gc
 N         -1.0925505047       -1.1562008220        0.0007385746
 C          0.0000006679       -1.9198641425        0.0010704037
 N          1.0924960161       -1.1562025301        0.0012207799
 C          0.6905919720        0.1510479248        0.0004227404
 C         -0.6906195274        0.1510407846        0.0002443496
 C         -2.4501561820       -1.6353486304       -0.0011145904
 C          2.4501397441       -1.6351955196       -0.0014109862
 H         -3.1268491531       -0.7854113642        0.0303043321
 H         -2.6237953910       -2.2672995228        0.8693020632
 H         -2.6409414497       -2.2136511457       -0.9049471218
 H          3.1265308812       -0.7860502401        0.0509667685
 H          2.6470488976       -2.1955437471       -0.9152657739
 H          2.6180390597       -2.2843090093        0.8573944958
 H         -0.0000549093       -2.9961024897        0.0011383699
 Cl         1.7669537493        1.4771014764       -0.0000483598
 Cl        -1.7669169167        1.4771756840       -0.0001429870
  16
  -28.9187965500000       1.720942222921653E-002 !gc
 N         -1.0925585213       -1.1562283628        0.0000510466
 C          0.0000049719       -1.9198565104       -0.0005436215
 N          1.0924994994       -1.1561971110       -0.0010784094
 C          0.6905612689        0.1510528805       -0.0003762703
 C         -0.6906348650        0.1510295898        0.0000214340
 C         -2.4501135624       -1.6355104154        0.0002177953
 C          2.4500905700       -1.6353369350        0.0010793990
 H         -3.1269986350       -0.7851520320        0.0039846764
 H         -2.6309609130       -2.2439177239        0.8859783608
 H         -2.6334237958       -2.2379268541       -0.8891295381
 H          2.6453326099       -2.2008786382        0.9120821637
 H          3.1266259010       -0.7859915106       -0.0454122813
 H          2.6193828316       -2.2796251339       -0.8610922918
 H         -0.0000603053       -2.9961044489       -0.0005606721
 Cl         1.7668644878        1.4771514937       -0.0000934775
 Cl        -1.7668072226        1.4772715892        0.0001979567
