  16
  -28.8375680900000       9.127401188157445E-002 !gc
 N         -1.0904649365       -1.1517359783        0.0000751242
 C          0.0000161280       -1.9174223433        0.0000521180
 N          1.0904789297       -1.1516845340        0.0000600243
 C          0.6908293610        0.1615381034        0.0000221989
 C         -0.6909072077        0.1614990237        0.0000266833
 C         -2.4604291810       -1.5890756413       -0.0000882493
 C          2.4604206704       -1.5890879694       -0.0000712443
 H         -2.9725913899       -1.2042693366        0.8822158159
 H         -2.4999010948       -2.6753239149        0.0025716881
 H         -2.9710820373       -1.2087102956       -0.8852119228
 H          2.9724695163       -1.2047277638        0.8825023502
 H          2.9712464821       -1.2083190286       -0.8849266271
 H          2.4997946938       -2.6753292376        0.0020780587
 H         -0.0000957342       -2.9912723728        0.0000817971
 Cl         1.7896422548        1.4506172409       -0.0000105310
 Cl        -1.7896194542        1.4506430987       -0.0000034633
  16
  -28.8375680800000       9.127304602971950E-002 !mtd11
 N         -1.0904759480       -1.1517253933       -0.0000390265
 C          0.0000063714       -1.9173994303       -0.0000965314
 N          1.0904979523       -1.1517106294       -0.0001231974
 C          0.6908807435        0.1615117502       -0.0000169123
 C         -0.6908337244        0.1615243846       -0.0000052304
 C         -2.4603927856       -1.5890495246        0.0000450498
 C          2.4604276983       -1.5891518869        0.0001590128
 H         -2.9714391682       -1.2072490098        0.8845170531
 H         -2.4998504780       -2.6752952294       -0.0010165773
 H         -2.9721664467       -1.2053530262       -0.8830722263
 H          2.4998129085       -2.6753730016        0.0015951508
 H          2.9719985460       -1.2053282366        0.8832638997
 H          2.9717283539       -1.2077837325       -0.8841634486
 H          0.0000708958       -2.9912621494        0.0000010806
 Cl         1.7895961127        1.4506770606       -0.0000461595
 Cl        -1.7896391176        1.4505860429        0.0000493413
  16
  -28.8375680800000       9.127304602971950E-002 !md3
 N         -1.0904660473       -1.1516869452        0.0001120677
 C          0.0000246305       -1.9173913580        0.0001482924
 N          1.0904923581       -1.1516962121        0.0001766305
 C          0.6908770818        0.1615098203        0.0001070574
 C         -0.6908632582        0.1615394361        0.0000421584
 C         -2.4603855795       -1.5892301560       -0.0003640400
 C          2.4603800363       -1.5892539485       -0.0000187861
 H         -2.4996817205       -2.6754779949       -0.0029041579
 H         -2.9721463365       -1.2045885194       -0.8830037696
 H         -2.9715295495       -1.2087803065        0.8844397191
 H          2.4996211450       -2.6754742685        0.0016910596
 H          2.9724428405       -1.2053273770        0.8827595566
 H          2.9713405340       -1.2081589785       -0.8846452967
 H         -0.0001304554       -2.9912484506        0.0004203863
 Cl         1.7895586193        1.4506989917       -0.0002917529
 Cl        -1.7895777888        1.4506719464        0.0002419225
  16
  -28.8375680800000       9.127304602971950E-002 !gc
 N         -1.0904646643       -1.1517351380       -0.0000082762
 C          0.0000162182       -1.9174221335       -0.0000457940
 N          1.0904788230       -1.1516845541       -0.0000932082
 C          0.6908293113        0.1615384555       -0.0000378692
 C         -0.6909071197        0.1614999368       -0.0000041906
 C         -2.4604287619       -1.5890749244        0.0000247895
 C          2.4604206479       -1.5890874037        0.0000891939
 H         -2.9716873110       -1.2069326459        0.8840234276
 H         -2.4998993199       -2.6753261695       -0.0005064307
 H         -2.9719870015       -1.2060430755       -0.8834099953
 H          2.9729750220       -1.2030613070       -0.8814541612
 H          2.4997978799       -2.6753227665       -0.0040621803
 H          2.9707377446       -1.2099900915        0.8859639251
 H         -0.0001005427       -2.9912721214       -0.0000567530
 Cl         1.7896436701        1.4506167762       -0.0000006616
 Cl        -1.7896210000        1.4506421979        0.0000177505
  16
  -28.8375680700000       9.127208018808509E-002 !mtd3
 N         -1.0904870284       -1.1517158314        0.0000363029
 C         -0.0000058599       -1.9174086901       -0.0000434114
 N          1.0904820769       -1.1517295520        0.0001557661
 C          0.6908561312        0.1615063669       -0.0000466708
 C         -0.6908736134        0.1615147533       -0.0000245707
 C         -2.4603955701       -1.5891472784       -0.0000165285
 C          2.4604062789       -1.5891082747       -0.0000763517
 H         -2.9717959191       -1.2066464608       -0.8838023996
 H         -2.9719387313       -1.2065108589        0.8836168643
 H         -2.4997807029       -2.6753789757        0.0000792333
 H          2.9730671371       -1.2030339557        0.8813452801
 H          2.9706678721       -1.2100255032       -0.8859576876
 H          2.4999267218       -2.6752966511        0.0041238798
 H         -0.0000341353       -2.9912664036       -0.0000345099
 Cl         1.7896007854        1.4506413051        0.0000178400
 Cl        -1.7895977401        1.4506666876       -0.0000055212
  16
  -28.8375680600000       9.127111435667111E-002 !gc
 N         -1.0904719602       -1.1517260631       -0.0000423478
 C          0.0000091500       -1.9174150985        0.0000297182
 N          1.0904732488       -1.1516936811        0.0001360060
 C          0.6908380072        0.1615300628        0.0000403068
 C         -0.6908964919        0.1615040203       -0.0000149829
 C         -2.4604237398       -1.5891116315       -0.0000028982
 C          2.4604157036       -1.5890970998       -0.0001041460
 H         -2.4998554612       -2.6753374520       -0.0016212340
 H         -2.9722508099       -1.2051608359       -0.8828912223
 H         -2.9714365842       -1.2078556163        0.8845375569
 H          2.9703768096       -1.2110738535       -0.8866284735
 H          2.4998102115       -2.6753193517        0.0053783367
 H          2.9733169060       -1.2019787629        0.8807750143
 H         -0.0000802710       -2.9912724526        0.0000280093
 Cl         1.7896325430        1.4506227902        0.0000035847
 Cl        -1.7896102269        1.4506524275       -0.0000109719
  16
  -28.8375680600000       9.127111435667111E-002 !mtd5
 N         -1.0904821397       -1.1517219981       -0.0001038430
 C          0.0000014104       -1.9174087940       -0.0001656581
 N          1.0904855566       -1.1517239170       -0.0001621432
 C          0.6908697719        0.1615108559       -0.0000373135
 C         -0.6908628561        0.1614953524       -0.0000106498
 C         -2.4604104856       -1.5891721753        0.0003664875
 C          2.4604294779       -1.5891625888        0.0000003834
 H         -2.9712934458       -1.2096947886       -0.8850478691
 H         -2.9723941470       -1.2034430987        0.8824046634
 H         -2.4997934212       -2.6754335418        0.0041304541
 H          2.4998035733       -2.6753672855       -0.0037096775
 H          2.9708551775       -1.2096988897        0.8856330933
 H          2.9728866460       -1.2034999981       -0.8817535261
 H          0.0000216309       -2.9912676960       -0.0004042847
 Cl         1.7895614597        1.4506613787        0.0002860376
 Cl        -1.7895745101        1.4506857544       -0.0002684889
  16
  -28.8375680500000       9.127014853582058E-002 !gc
 N         -1.0904764325       -1.1517473281        0.0000263593
 C          0.0000355392       -1.9173878647       -0.0000530321
 N          1.0904818878       -1.1516760629       -0.0001471317
 C          0.6908356281        0.1615358547       -0.0000524203
 C         -0.6908982023        0.1614949054        0.0000039137
 C         -2.4604180365       -1.5891102220        0.0000133497
 C          2.4604018235       -1.5891379410        0.0001223654
 H         -2.4998393347       -2.6753319346        0.0011143698
 H         -2.9715310545       -1.2073900992       -0.8842718912
 H         -2.9720718788       -1.2055579026        0.8831825835
 H          2.9702141877       -1.2116052919        0.8869421592
 H          2.9734363948       -1.2016812591       -0.8804851385
 H          2.4997307311       -2.6753925169       -0.0058247681
 H         -0.0000296085       -2.9912574373       -0.0000738153
 Cl         1.7896195454        1.4506300234        0.0000012555
 Cl        -1.7896044742        1.4506580942        0.0000182921
  16
  -28.8375680200000       9.126725113356048E-002 !md4
 N         -1.0904617097       -1.1517368457        0.0003441083
 C          0.0000054809       -1.9174333604        0.0002912190
 N          1.0905038095       -1.1517242122        0.0000601516
 C          0.6909099757        0.1614544040       -0.0000507583
 C         -0.6908538525        0.1614589278        0.0001724400
 C         -2.4603861598       -1.5891884115       -0.0006380177
 C          2.4604104707       -1.5892984434        0.0000278297
 H         -2.9703018341       -1.2095330788       -0.8866043665
 H         -2.9733812867       -1.2035338658        0.8808903503
 H         -2.4997183159       -2.6753724420        0.0028576465
 H          2.9729779105       -1.2028738909       -0.8813305484
 H          2.4996992639       -2.6755014547       -0.0046533047
 H          2.9708298542       -1.2106519777        0.8860381110
 H          0.0002033572       -2.9912806530        0.0003944509
 Cl         1.7894212707        1.4507722041       -0.0003376431
 Cl        -1.7894757934        1.4506819505        0.0003132151
  16
  -28.8368921700000       4.463913963578337E-002 !gc
 N         -1.0853773233       -1.1533944728        0.0000023202
 C          0.0049511057       -1.9177821863        0.0000120085
 N          1.0974343395       -1.1521660364        0.0000513647
 C          0.6967627010        0.1606305165        0.0000116653
 C         -0.6856913298        0.1589979339       -0.0000000570
 C         -2.4549924396       -1.5912484774       -0.0000287262
 C          2.4588153045       -1.6219608105       -0.0000312437
 H         -2.9663610371       -1.2090808003       -0.8839877324
 H         -2.9666841944       -1.2080942705        0.8833092713
 H         -2.4941407838       -2.6774944986        0.0005610269
 H          3.1284827821       -0.7652900344        0.0030168548
 H          2.6511153026       -2.2232543259       -0.8884425781
 H          2.6494002031       -2.2283322833        0.8852831759
 H          0.0085366189       -2.9917077253        0.0000132505
 Cl         1.7721134079        1.4700868136       -0.0000134485
 Cl        -1.7838944153        1.4490152457        0.0000115690
  16
  -28.8368921700000       4.463913963578337E-002 !gc
 N         -1.0853698257       -1.1533890219       -0.0000761595
 C          0.0049504348       -1.9177875579        0.0000096050
 N          1.0974342757       -1.1521676695        0.0000992086
 C          0.6967615859        0.1606307917        0.0000395514
 C         -0.6856913915        0.1590055014       -0.0000355456
 C         -2.4549862734       -1.5912408768        0.0000464236
 C          2.4588166121       -1.6219540635       -0.0000817207
 H         -2.9656165553       -1.2114367762        0.8854602707
 H         -2.4941452150       -2.6774849488       -0.0033665451
 H         -2.9674189777       -1.2057405664       -0.8818270632
 H          2.6489466117       -2.2298072102        0.8842876998
 H          3.1284879447       -0.7652763879        0.0047326815
 H          2.6516123437       -2.2216989326       -0.8894428895
 H          0.0084972882       -2.9917102837        0.0000141036
 Cl         1.7721215041        1.4700794352        0.0000242649
 Cl        -1.7839077681        1.4490126081       -0.0000219944
  16
  -28.8368921700000       4.463913963578337E-002 !gc
 N         -1.0853776462       -1.1533940471       -0.0000174973
 C          0.0049509334       -1.9177821171       -0.0000583727
 N          1.0974339669       -1.1521660240       -0.0000862619
 C          0.6967626240        0.1606302338       -0.0000421752
 C         -0.6856916925        0.1589982706       -0.0000045699
 C         -2.4549926036       -1.5912486088        0.0000221028
 C          2.4588152775       -1.6219593939        0.0001055763
 H         -2.4941402128       -2.6774951325       -0.0001509154
 H         -2.9665965150       -1.2084415498       -0.8835199018
 H         -2.9664492035       -1.2087353765        0.8837776863
 H          3.1284820255       -0.7652908346       -0.0035986646
 H          2.6492572863       -2.2289476221       -0.8847934977
 H          2.6512594071       -2.2226342891        0.8889277006
 H          0.0085351326       -2.9917075796       -0.0000838042
 Cl         1.7721142142        1.4700861419       -0.0000174719
 Cl        -1.7838946472        1.4490152230        0.0000349408
  16
  -28.8368921400000       4.463772255110860E-002 !gc
 N         -1.0853705843       -1.1533874783        0.0001468745
 C          0.0049489237       -1.9177880809        0.0000101191
 N          1.0974332741       -1.1521681723       -0.0001084530
 C          0.6967618898        0.1606294496       -0.0000453837
 C         -0.6856920523        0.1590059506        0.0000611420
 C         -2.4549857397       -1.5912448175       -0.0001168228
 C          2.4588165396       -1.6219520478        0.0000705038
 H         -2.4941449291       -2.6774774113        0.0059723580
 H         -2.9648693516       -1.2136843912       -0.8869310660
 H         -2.9681634043       -1.2035177668        0.8803343472
 H          2.6518875727       -2.2209503438        0.8898790888
 H          3.1284860780       -0.7652783256       -0.0056491867
 H          2.6486746885       -2.2305459742       -0.8838434422
 H          0.0084958192       -2.9917104288        0.0000223075
 Cl         1.7721211817        1.4700781312       -0.0000285169
 Cl        -1.7839063599        1.4490149038        0.0000263919
