  30
        -44.20718048
 C          0.6801508707        1.6937456159        0.6592671746
 C         -0.6802480564        1.6938860620        0.6587430618
 H          1.3674579707        2.4486887966        0.9809518011
 H         -1.3677661756        2.4490166687        0.9795402677
 C          2.4321063780        0.0599253196        0.0228300201
 C          3.3880743462        0.9711964161       -0.4102326851
 C          2.7808596639       -1.2570759320        0.2994727228
 C          4.6985861052        0.5562255420       -0.5665498855
 H          3.1074344488        1.9865119701       -0.6439091194
 C          4.0948366504       -1.6587138669        0.1392059570
 H          2.0395278149       -1.9534887333        0.6602209269
 C          5.0527196464       -0.7552301992       -0.2930982838
 H          5.4420207756        1.2595966217       -0.9061944212
 H          4.3700614800       -2.6782095262        0.3576579827
 H          6.0756808290       -1.0734037897       -0.4156392840
 C         -2.4320868859        0.0600766834        0.0221706770
 C         -2.7810571960       -1.2562894399        0.3014440495
 C         -3.3877781781        0.9706744054       -0.4129213237
 C         -4.0951290937       -1.6580032331        0.1419281283
 H         -2.0398290204       -1.9520497859        0.6636742192
 C         -4.6983263358        0.5555943681       -0.5686017920
 H         -3.1068486204        1.9854329620       -0.6486787945
 C         -5.0527723025       -0.7551940324       -0.2922425367
 H         -4.3705628042       -2.6769259718        0.3627834407
 H         -5.4416704361        1.2583772134       -0.9096661748
 H         -6.0758538895       -1.0732941579       -0.4139264491
 C          0.0000348266       -0.2377412267       -0.0942972605
 H          0.0001397199       -1.2211033311       -0.5205856938
 N          1.0885717611        0.4805385446        0.1852211305
 N         -1.0885314512        0.4807815492        0.1843349754
