17
	Energy:       4.0656486
C         -3.91085        0.94936       -0.04696
C         -2.71660        0.00293        0.03382
H         -4.85275        0.36932        0.04975
H         -3.91823        1.47932       -1.02328
H         -3.86755        1.69668        0.77385
C         -1.39450        0.76780       -0.09597
H         -2.79679       -0.74626       -0.78389
H         -2.74621       -0.52934        1.00963
C         -0.19585       -0.18663       -0.01433
H         -1.32108        1.51753        0.72236
H         -1.37169        1.30049       -1.07212
N          1.06446        0.54499       -0.13837
H         -0.26384       -0.93976       -0.83090
H         -0.21331       -0.72308        0.96061
H          1.10598        1.03625       -1.06087
H          1.86005       -0.13086       -0.07906
H          1.15386        1.24158        0.63678
