21
Properties=species:S:1:pos:R:3 energy=-8347.217610677084 free_energy=-8347.217610677084 pbc="F F F"
C       -0.00000100       0.68087600      -0.62325700
C       -0.00000100      -0.68087600      -0.62325700
N       -0.00000000       1.05984500       0.71765400
N       -0.00000000      -1.05984400       0.71765400
C       -0.00000000       0.00000000       1.56710100
C        0.00000000       2.44111900       1.15386600
C        0.00000000      -2.44111900       1.15386600
H       -0.89354700       2.96966400       0.78775300
H       -0.89354700      -2.96966400       0.78775200
H        0.89354800      -2.96966200       0.78775300
H        0.89354800       2.96966300       0.78775400
H       -0.00000000       2.45375200       2.25039600
H       -0.00000000      -2.45375300       2.25039500
C       -0.00000000       1.66468800      -1.74464200
C       -0.00000000      -1.66468800      -1.74464100
H        0.88873800       2.31548400      -1.71264400
H        0.88873700      -2.31548400      -1.71264300
H       -0.88873700      -2.31548500      -1.71264300
H       -0.88873700       2.31548500      -1.71264500
H        0.00000000       1.13984700      -2.70995600
H       -0.00000000      -1.13984700      -2.70995600
