  34
        -39.78849169
 N         -1.0824043951       -0.0387756858       -0.0916131896
 C          0.0002111546       -0.8045919898        0.0002828540
 N          1.0825956010       -0.0383955908        0.0916922290
 H          0.0003717360       -1.8744214094        0.0006197532
 C          0.6843038903        1.2748959276        0.0540122843
 C         -0.6845074152        1.2746555927       -0.0546075786
 C         -2.4581371361       -0.5214007412       -0.1595735349
 C          2.4584596047       -0.5206893420        0.1590246990
 C         -2.5750544405       -1.6819732849       -1.1414703155
 H         -3.0627325595        0.3133458523       -0.5230561583
 C         -2.9240912660       -0.9133130679        1.2409152587
 C          2.9224324664       -0.9160253813       -1.2411670804
 C          2.5767995538       -1.6787752247        1.1437100873
 H          3.0634993185        0.3150186308        0.5195142716
 C          1.6341975620        2.4108437515        0.1286364256
 C         -1.6347539051        2.4102640777       -0.1299221433
 H         -2.1181837589       -1.4311448124       -2.0958889325
 H         -3.6253468951       -1.8963905877       -1.3153963260
 H         -2.1129385094       -2.5847662562       -0.7516563110
 H         -2.3390261562       -1.7464950696        1.6227585146
 H         -3.9664847369       -1.2145863471        1.2058302221
 H         -2.8325818887       -0.0784099191        1.9314585245
 H          2.8282876195       -0.0832805943       -1.9339838887
 H          2.3379906084       -1.7512586172       -1.6194799341
 H          3.9653719195       -1.2155509412       -1.2071845461
 H          3.6273462976       -1.8924927209        1.3169454868
 H          2.1144116577       -2.5826555681        0.7567288652
 H          2.1209788595       -1.4256668699        2.0980332715
 H         -1.1011051971        3.3500384477       -0.0323870540
 H         -2.3742554120        2.3541550815        0.6671668972
 H         -2.1593848230        2.4159466816       -1.0849505698
 H          2.1603789605        2.4160336252        1.0828083958
 H          1.0999943209        3.3504661904        0.0326394509
 H          2.3724190062        2.3556347156       -0.6697230339
