  18
        -21.85953435
 N         -1.0951787001        0.1708215665        0.0002290007
 C          0.0000598313        0.8862784362        0.0003692155
 N          1.0951854189        0.1707530275        0.0005506456
 H          0.0001081630        1.9638418312        0.0005516458
 C          0.7699069385       -1.2515796249       -0.0001910976
 C         -0.7699946257       -1.2515542782        0.0000947286
 C         -2.4527543812        0.6297828021       -0.0004167705
 C          2.4527786903        0.6297268402       -0.0004479065
 H         -2.9713642436        0.2616115044       -0.8874220100
 H         -2.4789188320        1.7164400607        0.0026354404
 H         -2.9737135304        0.2565594681        0.8830544331
 H          2.4789780508        1.7164286124        0.0036438168
 H          2.9709438018        0.2624223578       -0.8880082675
 H          2.9741696029        0.2558040803        0.8824697714
 H          1.1929489714       -1.7309128865        0.8857449550
 H          1.1926095025       -1.7298888400       -0.8868575125
 H         -1.1927076169       -1.7303370349        0.8864991513
 H         -1.1931049731       -1.7303630078       -0.8860933416
