  21
        -24.95856111
 N         -1.1619647947       -0.3557743072        0.0345444006
 C          0.0000205883       -0.9531026871       -0.0544455915
 N          1.1619831400       -0.3557872346        0.0346539333
 H         -0.0000685987       -2.0258778759       -0.2055859145
 C         -2.4085133826       -1.0780588414       -0.0420251454
 C          2.4085340588       -1.0780154333       -0.0423311246
 H         -2.2305761552       -2.1491421911       -0.0954750890
 H         -2.9692906159       -0.7691974432       -0.9258901170
 H         -3.0123044970       -0.8646754390        0.8409799227
 H          2.2305541324       -2.1491028832       -0.0960726375
 H          3.0124657801       -0.8648686631        0.8407138008
 H          2.9691646304       -0.7689323916       -0.9262215527
 C         -1.2435279607        1.0835092962        0.2177776499
 C          1.2433993959        1.0834490834        0.2183584460
 C          0.0000886511        1.7426572022       -0.3652267140
 H         -1.3385263233        1.3077064676        1.2853836826
 H         -2.1416085748        1.4470914784       -0.2847516819
 H          0.0000616977        2.8066616629       -0.1380107251
 H          0.0003728464        1.6255232719       -1.4502670353
 H          2.1417931595        1.4472442397       -0.2834967314
 H          1.3376914802        1.3073671506        1.2861157148
