  34
        -39.77889091
 N         -1.0892940987       -0.2095165639        0.0009258493
 C          0.0000172602        0.5534060569        0.0008651841
 N          1.0893317408       -0.2094914977        0.0003648576
 H         -0.0000304616        1.6226501422        0.0012889561
 C          0.6794793537       -1.5091070196        0.0001253972
 C         -0.6794069116       -1.5091205424        0.0003556713
 C         -2.4978630023        0.2237356976       -0.0000980616
 C          2.4979018668        0.2237679039       -0.0000282819
 C         -2.5735021444        1.7474553854        0.0056174914
 C         -3.1621221030       -0.3384327347        1.2580091893
 C         -3.1566186068       -0.3290280855       -1.2652701014
 C          3.1593161174       -0.3347135007       -1.2612892990
 C          3.1593825065       -0.3327538148        1.2620616251
 C          2.5734121474        1.7475103965       -0.0013092847
 H          1.3554011959       -2.3378968299       -0.0001596712
 H         -1.3553112951       -2.3379250432        0.0001776669
 H         -2.1115513463        2.1656764367        0.8968223025
 H         -3.6176739692        2.0463692304        0.0062829011
 H         -2.1108419526        2.1725644852       -0.8819400830
 H         -3.1522667392       -1.4152271131       -1.2778642401
 H         -2.6461112122        0.0321743460       -2.1552163281
 H         -4.1897167978        0.0020565337       -1.3090277753
 H          3.1566554945       -1.4189906872        1.2707523854
 H          2.6498443457        0.0245165078        2.1541322082
 H          4.1920728157       -0.0003865847        1.3053349675
 H         -3.1597453726       -1.4246670884        1.2618256502
 H         -4.1948758653       -0.0060998978        1.3005195623
 H         -2.6545008035        0.0147419623        2.1528109692
 H          4.1922412608       -0.0030935868       -1.3046719378
 H          2.6502510721        0.0218431822       -2.1539078903
 H          3.1559235004       -1.4209431306       -1.2687334203
 H          3.6175660096        2.0464629996       -0.0017180166
 H          2.1112453241        2.1699397937        0.8877901944
 H          2.1109435890        2.1683827578       -0.8909894601
