  21
        -26.93826119
 N         -1.0638904284       -0.6673302437       -0.0000097727
 C          0.0001171020       -1.5104439538       -0.0002649705
 N          1.0640508937       -0.6672093784       -0.0002875124
 C          0.6800869923        0.6613393806        0.0000387979
 C         -0.6800579351        0.6612907742        0.0000956950
 C         -2.4273382235       -1.1132416225        0.0010565037
 C          2.4275140487       -1.1131335598       -0.0006633818
 H         -2.9546691172       -0.7557709816       -0.8867949448
 H         -2.9536775615       -0.7537086591        0.8886373660
 H         -2.4232452241       -2.2012053174        0.0023233875
 H          2.9551139060       -0.7512729777       -0.8865643551
 H          2.4233392328       -2.2011229973       -0.0047134322
 H          2.9535560986       -0.7579566245        0.8889146743
 C          1.6620823432        1.7772980472        0.0013011663
 C         -1.6624831736        1.7768667967       -0.0013406851
 H         -2.3016056768        1.7276850335       -0.8836946041
 H         -1.1442692964        2.7319998579       -0.0029367946
 H         -2.3016923276        1.7305232905        0.8811072074
 H          2.3013334065        1.7285279004        0.8835375961
 H          1.1433626495        2.7321271367        0.0028506340
 H          2.3011635338        1.7312280530       -0.8811943424
  21
        -26.93702539
 N         -1.0619978779       -0.6695650798        0.0000411291
 C          0.0023914749       -1.5121119011       -0.0001919010
 N          1.0690333865       -0.6703298388        0.0000225758
 C          0.6852414549        0.6577779884        0.0006207214
 C         -0.6755145488        0.6562889855        0.0004842481
 C         -2.4260465767       -1.1134532875       -0.0001943189
 C          2.4257654566       -1.1404863989        0.0000478052
 H         -2.9506848966       -0.7585035889        0.8902849941
 H         -2.4242454851       -2.2013860010       -0.0059914523
 H         -2.9533021660       -0.7485944539       -0.8850128916
 H          2.9609526829       -0.7936185721       -0.8873637550
 H          2.3957998798       -2.2281509576       -0.0049114220
 H          2.9580896312       -0.8021499593        0.8925738637
 C          1.6306561609        1.8095884019       -0.0005119164
 C         -1.6440391619        1.7840158618       -0.0000048028
 H         -2.2944684134        1.7366284624        0.8740711770
 H         -2.2737345472        1.7538605975       -0.8900328399
 H         -1.1085731493        2.7292703785        0.0150855547
 H          2.6605700328        1.4662871688        0.0254385328
 H          1.4577006867        2.4457256922        0.8677525353
 H          1.4925442483        2.4165182668       -0.8957568537
  21
        -26.93610326
 N         -1.0607195473       -0.6657889776        0.0000299037
 C          0.0021954144       -1.5079223674        0.0004654958
 N          1.0689149652       -0.6655973834        0.0010407419
 C          0.6841740200        0.6631889894        0.0004702353
 C         -0.6766163986        0.6621970999        0.0002218253
 C         -2.4239946964       -1.1122869846        0.0002232538
 C          2.4266544072       -1.1423296923       -0.0017000060
 H         -2.9494927338       -0.7582283285        0.8905059270
 H         -2.4192731408       -2.2002319408       -0.0047079281
 H         -2.9523170334       -0.7497664440       -0.8848726115
 H          3.1212945820       -0.3065691877        0.0257869903
 H          2.6137667362       -1.7336425942       -0.9000167625
 H          2.5986840586       -1.7800687129        0.8669835709
 C          1.6452987056        1.7992938223        0.0008569547
 C         -1.6613934709        1.7757656589       -0.0011197304
 H         -2.2922477363        1.7323183328       -0.8897739766
 H         -1.1470513874        2.7328220432        0.0101960694
 H         -2.3085844442        1.7199997065        0.8748631442
 H          2.2829225613        1.7724128571       -0.8836081889
 H          2.2814479761        1.7730974151        0.8864775564
 H          1.1008376308        2.7397499546        0.0002228094
  21
        -26.93416385
 N         -1.0568421532       -0.6677577385       -0.0000037242
 C          0.0061981713       -1.5088543386       -0.0000360832
 N          1.0770332353       -0.6687243516       -0.0000267788
 C          0.6921162504        0.6604746012        0.0000074598
 C         -0.6697638600        0.6567876199        0.0000221545
 C         -2.4207112048       -1.1120881796        0.0000011588
 C          2.4213326231       -1.1829615772       -0.0000528401
 H         -2.4184498923       -2.2000579103       -0.0000247888
 H         -2.9465846646       -0.7521488012       -0.8876225240
 H         -2.9465657526       -0.7521909126        0.8876532045
 H          2.5807329984       -1.8025082556        0.8841030209
 H          3.1486473244       -0.3749818543       -0.0000482368
 H          2.5807093450       -1.8024763589       -0.8842351724
 C          1.6012771851        1.8421345715        0.0000253142
 C         -1.6392499960        1.7838438901        0.0000584039
 H         -1.1059798548        2.7303061759        0.0000736807
 H         -2.2794325335        1.7440017051        0.8821758125
 H         -2.2794520961        1.7440412615       -0.8820465762
 H          2.6467371383        1.5486228419        0.0000119417
 H          1.4219675286        2.4565106667        0.8826037044
 H          1.4219549616        2.4565476207       -0.8825248579
