  41
        -56.71150233
 N         -1.0645479084        0.0206120104        0.4499092972
 C         -0.0000534385       -0.0000267053       -0.3948738978
 N          1.0645343468       -0.0195668270        0.4498352166
 C          0.6751779012       -0.0073719655        1.7701718477
 C         -0.6750711413        0.0101344109        1.7702198572
 C         -2.4130851073        0.0577243750        0.0308091949
 C          2.4130231752       -0.0574790716        0.0306851409
 C         -2.8897923546        1.1976223796       -0.6207891282
 C         -3.2421372348       -1.0378895409        0.2738031991
 C          2.8890987555       -1.1980415857       -0.6202606055
 C          3.2427134761        1.0377761515        0.2730277606
 H          1.3782109053       -0.0328578769        2.5776864460
 H         -1.3780031531        0.0368188089        2.5777909364
 C         -4.5709272985       -0.9649015954       -0.1216266193
 C         -5.0601066643        0.1636724278       -0.7514667579
 C         -4.2213479728        1.2343502713       -1.0048064717
 C          4.2205772822       -1.2357240229       -1.0043905632
 C          5.0599566749       -0.1653601247       -0.7517362186
 C          4.5714572577        0.9637978876       -0.1224600307
 C         -1.9706634875        2.3505548469       -0.8851398868
 C         -2.7093529934       -2.2742282060        0.9350184454
 H         -5.2233471144       -1.8061703731        0.0626628652
 H         -6.0961504165        0.2065167516       -1.0532577102
 H         -4.6039477384        2.1116326077       -1.5057842056
 C          1.9693437469       -2.3506715684       -0.8837459755
 H          5.2243263501        1.8048402058        0.0612919774
 C          2.7110665511        2.2747945339        0.9339096995
 H          4.6026808674       -2.1135478406       -1.5048033659
 H          6.0959426382       -0.2089369442       -1.0536173065
 H         -2.6705193719       -2.1494508084        2.0175827047
 H         -1.7017963765       -2.4926733121        0.5852907432
 H         -3.3489946808       -3.1258108899        0.7168364195
 H         -1.6387794460        2.7942375056        0.0543999780
 H         -2.4710302763        3.1153316429       -1.4726599049
 H         -1.0878682652        2.0039846618       -1.4206126500
 H          3.3485107965        3.1267944375        0.7109112408
 H          2.6776300987        2.1523143702        2.0169385916
 H          1.7015971038        2.4911373560        0.5884809482
 H          1.0873334201       -2.0042166688       -1.4205825372
 H          1.6361804752       -2.7926547897        0.0561362664
 H          2.4696768983       -3.1167137975       -1.4696385572
  41
        -56.71141693
 N         -1.0614967524        0.0727303617        0.4404375053
 C         -0.0000616316        0.0000985405       -0.4050061258
 N          1.0612822144       -0.0760608832        0.4403981192
 C          0.6731462454       -0.0550166075        1.7604266435
 C         -0.6736766134        0.0463690080        1.7604723314
 C         -2.4104669203        0.1534084688        0.0266178768
 C          2.4102649401       -0.1540167887        0.0262912074
 C         -3.1018370064        1.3568606492        0.1665433726
 C         -3.0239568672       -0.9795179481       -0.5106303632
 C          3.1055793639       -1.3548154317        0.1695169466
 C          3.0200430448        0.9792040607       -0.5147351425
 H          1.3768127702       -0.0959957010        2.5671222457
 H         -1.3776064043        0.0844361685        2.5671014839
 C         -4.3556625651       -0.8963187328       -0.8877243007
 C         -5.0590726780        0.2854374757       -0.7378249632
 C         -4.4341783797        1.4041925616       -0.2191965222
 C          4.4380276720       -1.3989648636       -0.2163519218
 C          5.0592613328       -0.2798118783       -0.7384103377
 C          4.3519181537        0.8991519138       -0.8918202377
 C         -2.4107943498        2.5710198562        0.7108500087
 C         -2.2434016818       -2.2486371142       -0.6655911621
 H         -4.8448576492       -1.7662078160       -1.3012450430
 H         -6.0966566137        0.3362905498       -1.0331069371
 H         -4.9823219913        2.3294439305       -0.1155295271
 C          2.4191527665       -2.5700670154        0.7173192220
 H          4.8381761453        1.7693526392       -1.3081445891
 C          2.2357032097        2.2455491216       -0.6733102730
 H          4.9891183002       -2.3221679762       -0.1100332908
 H          6.0969590968       -0.3281863834       -1.0337054759
 H         -1.9267000644       -2.6221859438        0.3089722842
 H         -1.3486708059       -2.0609915483       -1.2578362875
 H         -2.8418173397       -3.0130674833       -1.1535088371
 H         -2.9901242812        3.4663370149        0.5006188174
 H         -1.4230799752        2.6771203241        0.2645180131
 H         -2.2831063215        2.4925025031        1.7909040204
 H          1.3390438571        2.0524964702       -1.2608615210
 H          2.8303174733        3.0088288923       -1.1676343862
 H          1.9221703337        2.6234729900        0.3006147843
 H          2.2984403676       -2.4926500688        1.7982584204
 H          2.9982522295       -3.4645374818        0.5027965132
 H          1.4287748672       -2.6771674286        0.2772334442
  41
        -56.71138347
 N         -1.0600348679        0.1670958917        0.4138833934
 C         -0.0043818258       -0.1439838258       -0.3848525757
 N          1.0673020402        0.0646298181        0.4249925931
 C          0.6904359188        0.4793769800        1.6826437385
 C         -0.6579809972        0.5444807350        1.6756153904
 C         -2.4132872330        0.1225486826        0.0115842479
 C          2.4147771242       -0.1091717110        0.0373905521
 C         -3.1502413654        1.3057439590       -0.0604934477
 C         -2.9918608087       -1.1099571984       -0.3004902879
 C          2.8886195951       -1.3961949762       -0.2256293131
 C          3.2489948841        1.0047458804       -0.0679337251
 H          1.3998143900        0.6665638321        2.4630205494
 H         -1.3537077580        0.7986842093        2.4491221260
 C         -4.3294301631       -1.1436059779       -0.6635829184
 C         -5.0769064155        0.0190212983       -0.7188141548
 C         -4.4879581783        1.2339639616       -0.4244875482
 C          4.2207396466       -1.5549259669       -0.5757807134
 C          5.0635086514       -0.4616441447       -0.6648742402
 C          4.5778956252        0.8083974722       -0.4173690362
 C         -2.5127588386        2.6316202540        0.2323217070
 C         -2.1720746931       -2.3617446988       -0.2415987977
 H         -4.7891101402       -2.0914563287       -0.9029343367
 H         -6.1189493102       -0.0215174398       -0.9994349260
 H         -5.0684488642        2.1433927973       -0.4822016439
 C          1.9646842246       -2.5707050553       -0.1284290030
 H          5.2336642756        1.6629790966       -0.5009239404
 C          2.7187607905        2.3864486816        0.1752265604
 H          4.6005535180       -2.5458183282       -0.7780132289
 H          6.0999685108       -0.5995996150       -0.9350332291
 H         -1.3532107206       -2.2959156261       -0.9558937294
 H         -2.7797689212       -3.2321073927       -0.4735938330
 H         -1.7374483695       -2.4900556563        0.7495349309
 H         -3.0830590037        3.4347747489       -0.2278667445
 H         -1.4940621517        2.6612698248       -0.1503049040
 H         -2.4753533393        2.8168384663        1.3062382937
 H          1.7278467162        2.4975145015       -0.2621852454
 H          3.3805661265        3.1291649143       -0.2631296143
 H          2.6399038955        2.5909532988        1.2433280076
 H          1.5232861054       -2.6304134179        0.8663114371
 H          2.4948796125       -3.4968462205       -0.3328151034
 H          1.1525091222       -2.4578889992       -0.8444644801
  41
        -56.71131969
 N         -1.0585652235        0.1326579095        0.4320431786
 C         -0.0011224112       -0.0323575754       -0.4081923105
 N          1.0650237432       -0.0065671847        0.4314344581
 C          0.6867799690        0.1617699137        1.7439485784
 C         -0.6605587276        0.2555253945        1.7435803676
 C         -2.4090968645        0.1554960959        0.0195255743
 C          2.4141796829       -0.1389660016        0.0277215025
 C         -3.1562362804        1.3257036336        0.1576059335
 C         -2.9726757913       -1.0048917839       -0.5170478454
 C          3.0214048603       -1.3935661064        0.0800240280
 C          3.1102626192        0.9902966275       -0.4032660438
 H          1.3977600539        0.2043694564        2.5444496727
 H         -1.3573691668        0.3748535215        2.5480918923
 C         -4.3072580458       -0.9836127600       -0.8908669001
 C         -5.0656623834        0.1636466702       -0.7396439507
 C         -4.4909843614        1.3098154293       -0.2245437634
 C          4.3535261725       -1.5002238233       -0.2923971182
 C          5.0598639339       -0.3869697032       -0.7099780013
 C          4.4407124877        0.8484738589       -0.7689587366
 C         -2.5331557229        2.5802082666        0.6941858395
 C         -2.1396589721       -2.2399721125       -0.6739559948
 H         -4.7562624633       -1.8758123420       -1.3024444148
 H         -6.1053898804        0.1657744380       -1.0316452935
 H         -5.0801100638        2.2095587087       -0.1206745979
 C          2.2341066870       -2.5889097214        0.5238359506
 H          4.9942385596        1.7140847773       -1.1027156685
 C          2.4151800016        2.3159932490       -0.4642207143
 H          4.8385299260       -2.4649209097       -0.2561574868
 H          6.0968899414       -0.4836258081       -0.9956925818
 H         -2.7103379972       -3.0318922720       -1.1511640273
 H         -1.7964949692       -2.5934739347        0.2990520201
 H         -1.2605625121       -2.0151553617       -1.2763868437
 H         -2.5195953352        2.5710099381        1.7845429907
 H         -3.0993426720        3.4508627040        0.3724255129
 H         -1.5068312314        2.6800348166        0.3454394614
 H          1.5166715857        2.2353401219       -1.0750204278
 H          3.0663896675        3.0748168418       -0.8893773712
 H          2.1126573921        2.6355516863        0.5337063327
 H          1.3148168227       -2.6669939791       -0.0554045271
 H          1.9578150023       -2.4993065113        1.5748747648
 H          2.8114589164       -3.5003766454        0.3944717836
  41
        -56.71064006
 N         -1.0619322750        0.0265942700        0.4514851004
 C          0.0013290482       -0.0172879430       -0.3924124416
 N          1.0669260973       -0.0049958523        0.4519772985
 C          0.6785695937        0.0486438988        1.7715250352
 C         -0.6720361138        0.0626352290        1.7721401839
 C         -2.4119029660        0.0493868581        0.0335801759
 C          2.4146201739       -0.0537634720        0.0320868292
 C         -2.8971553681        1.2006533227       -0.5944218358
 C         -3.2351851146       -1.0535908969        0.2550747597
 C          2.8839700426       -1.2041069573       -0.6071328008
 C          3.2506513908        1.0394875178        0.2612414983
 H          1.3816682979        0.0503665368        2.5793411430
 H         -1.3768930914        0.1091298461        2.5777580339
 C         -4.5647109388       -0.9782903400       -0.1440958381
 C         -5.0594914108        0.1571073267       -0.7541221802
 C         -4.2263840231        1.2385294888       -0.9828759845
 C          4.2147329977       -1.2529427883       -0.9922289004
 C          5.0604462165       -0.1845945218       -0.7521793670
 C          4.5787101127        0.9537488230       -0.1347394429
 C         -1.9829299274        2.3634360400       -0.8318433970
 C         -2.7219206664       -2.3234542940        0.8681368394
 H         -5.2113067382       -1.8271747840        0.0254615188
 H         -6.0952445174        0.1998750900       -1.0569782905
 H         -4.6127500316        2.1240164066       -1.4661918163
 C          1.9590298435       -2.3556005648       -0.8565996470
 H          5.2361056705        1.7933973737        0.0389999165
 C          2.7295344363        2.2882428279        0.9087061257
 H          4.5914542311       -2.1382432605       -1.4835059741
 H          6.0958148019       -0.2371176652       -1.0547865877
 H         -3.4313505445       -2.7074152418        1.5990064197
 H         -1.7602400351       -2.1832710996        1.3535077496
 H         -2.6001928727       -3.0777550853        0.0902617687
 H         -1.1067061244        2.0365616276       -1.3902982077
 H         -1.6389380753        2.7768554010        0.1170602864
 H         -2.4914434161        3.1462075807       -1.3878733556
 H          3.3561628359        3.1380182028        0.6490491231
 H          2.7279941498        2.1903420895        1.9948089267
 H          1.7098995593        2.4926668025        0.5870942211
 H          2.4529253265       -3.1262409052       -1.4419487545
 H          1.0731177730       -2.0097878762       -1.3872555790
 H          1.6319859572       -2.7912662897        0.0882779676
  41
        -56.71048463
 N         -1.0575412625        0.3076873310        0.3232624642
 C         -0.0014583556       -0.2595331044       -0.3179502370
 N          1.0710224643        0.2877974668        0.3118541919
 C          0.6960731197        1.1689676767        1.3005754256
 C         -0.6544262764        1.1832525342        1.3071939583
 C         -2.4139262303        0.0408603627        0.0298201889
 C          2.4202783770       -0.0083298663        0.0121503968
 C         -2.9362563727        0.4815872175       -1.1900723124
 C         -3.2108950672       -0.6380407558        0.9513548607
 C          2.9863033296        0.4965543389       -1.1594173726
 C          3.1617529456       -0.7909459507        0.8980003088
 H          1.4092985665        1.7107905457        1.8883512509
 H         -1.3510736672        1.7417259359        1.8996645894
 C         -4.5490935339       -0.8502821468        0.6408603467
 C         -5.0796561087       -0.4090459319       -0.5549389367
 C         -4.2733317578        0.2480780219       -1.4677757865
 C          4.3194758839        0.2214182800       -1.4240407330
 C          5.0711951932       -0.5388912039       -0.5464750696
 C          4.4938649415       -1.0445678944        0.6034135844
 C         -2.0521937606        1.1895480411       -2.1701200684
 C         -2.6607268371       -1.1843217665        2.2364151249
 H         -5.1745617561       -1.3734387286        1.3497799964
 H         -6.1219177757       -0.5805389235       -0.7798202636
 H         -4.6871120872        0.5873950025       -2.4061962518
 C          2.1556470583        1.3144836829       -2.0996460709
 H          5.0800021375       -1.6481514371        1.2812187048
 C          2.5221438428       -1.3537575895        2.1317373900
 H          4.7715051522        0.6083837496       -2.3256969754
 H          6.1093307259       -0.7433319519       -0.7628317693
 H         -2.4871695598       -2.2555648466        2.1281950353
 H         -3.3723827466       -1.0401370973        3.0471291760
 H         -1.7184647072       -0.7183187189        2.5106899215
 H         -1.6337452411        2.0929777250       -1.7264490840
 H         -2.6076152759        1.4630784604       -3.0629532218
 H         -1.2227208125        0.5415541320       -2.4483375917
 H          2.3732948408       -0.5758197562        2.8812214336
 H          3.1472767546       -2.1297980596        2.5657117375
 H          1.5481741691       -1.7785107679        1.8921412719
 H          1.7538974551        2.1917423558       -1.5924318188
 H          1.3135308989        0.7230682538       -2.4553503028
 H          2.7454263216        1.6421444106       -2.9513047909
