29
Properties=species:S:1:pos:R:3 energy=-8347.217610677084 free_energy=-8347.217610677084 pbc="F F F"
C       -0.00231000       0.67497000      -1.83696600
C        0.00231300      -0.67497000      -1.83696600
H       -0.01762900       1.37946800      -2.66558200
H        0.01763300      -1.37946800      -2.66558200
C       -0.01110400       2.42025700      -0.05843100
C       -0.59809200       2.75047900       1.16589100
C        0.56976100       3.41622100      -0.84662700
C       -0.59481200       4.07373300       1.60002200
H       -1.05165500       1.96134000       1.76852600
C        0.55744900       4.74045100      -0.40873600
H        1.04700400       3.16212400      -1.79640600
C       -0.02104500       5.07499600       0.81469500
H       -1.05507800       4.32477800       2.55986300
H        1.01520600       5.51469400      -1.03067400
H       -0.02567000       6.11371400       1.15601100
C        0.01110400      -2.42025700      -0.05843000
C        0.59809300      -2.75048000       1.16589100
C       -0.56976300      -3.41622000      -0.84662700
C        0.59481200      -4.07373300       1.60002100
H        1.05165700      -1.96134100       1.76852600
C       -0.55745200      -4.74045100      -0.40873500
H       -1.04700500      -3.16212300      -1.79640500
C        0.02104400      -5.07499600       0.81469500
H        1.05507900      -4.32477900       2.55986200
H       -1.01520900      -5.51469400      -1.03067300
H        0.02566900      -6.11371400       1.15601100
C       -0.00000000       0.00000000       0.35129900
N       -0.00653800       1.06309500      -0.49879800
N        0.00654000      -1.06309500      -0.49879800
