33
	Energy:      42.1925213
N         -1.96443       -0.41216        0.33864
C         -0.99465       -1.42207       -0.03656
N          0.20476       -0.66980       -0.34738
C         -0.06095        0.70656       -0.16039
C         -1.35620        0.85836        0.24909
C         -3.34885       -0.65653        0.74518
C          1.46367       -1.27982       -0.78078
C         -3.67129       -2.16743        0.72853
C         -4.30285        0.06149       -0.22817
C         -3.56504       -0.12243        2.17383
C          1.95984       -2.24410        0.31297
C          2.55717       -0.21852       -1.03541
C          1.22280       -2.06039       -2.08654
H          0.63663        1.51855       -0.31249
H         -1.83718        1.80215        0.46909
H         -3.36988        0.96968        2.22451
H         -2.87817       -0.63157        2.88375
H         -4.61068       -0.29955        2.50677
H         -3.53405       -2.58641       -0.29175
H         -4.72340       -2.34962        1.03775
H         -3.00581       -2.71809        1.42801
H          0.85900       -1.37610       -2.88307
H          0.46146       -2.85577       -1.93740
H          2.16073       -2.54294       -2.43738
H          2.24089        0.48890       -1.83202
H          3.50377       -0.70056       -1.36308
H          2.77019        0.35697       -0.10887
H         -4.15195       -0.31406       -1.26316
H         -4.12277        1.15735       -0.22659
H         -5.36262       -0.11211        0.05874
H          2.91218       -2.73024        0.00903
H          1.21181       -3.04280        0.50542
H          2.13246       -1.69351        1.26277
