  33
        -39.59675538
 N         -1.0678620240        0.2141534397       -0.0000959278
 C         -0.0000125582       -0.6244718050       -0.0002979355
 N          1.0678909412        0.2141500427       -0.0003145486
 C          0.6752863047        1.5310067029       -0.0001156867
 C         -0.6752462509        1.5310464550       -0.0000643704
 C         -2.4526373158       -0.2219348689        0.0000069852
 C          2.4526481409       -0.2219496533        0.0000438391
 C         -3.1494943622        0.3077801231       -1.2594214693
 C         -3.1506197246        0.3116643244        1.2571787205
 C         -2.4908997519       -1.7497243686        0.0023997636
 C          3.1488608966        0.3073628139        1.2600120032
 C          3.1512538610        0.3120638205       -1.2566037206
 C          2.4908495738       -1.7497441870       -0.0028697140
 H          1.3595424208        2.3549204800       -0.0000486916
 H         -1.3595692390        2.3548957401        0.0000069317
 H         -1.9834102400       -2.1346108051        0.8815044745
 H         -1.9815369914       -2.1373887022       -0.8743867938
 H         -3.5217556212       -2.0943591043        0.0018784258
 H         -3.1579759875        1.3952565085       -1.2750872845
 H         -4.1774237965       -0.0437958539       -1.2936927415
 H         -2.6305571495       -0.0458109465       -2.1478365498
 H          1.9830911088       -2.1342919010       -0.8819695914
 H          1.9816845284       -2.1376609267        0.8739194276
 H          3.5216753258       -2.0944663437       -0.0027248264
 H          4.1779481605       -0.0428822485       -1.2927485584
 H          3.1636272476        1.3995545912       -1.2665691011
 H          2.6311111348       -0.0350524351       -2.1468808806
 H         -4.1775799442       -0.0425108770        1.2932791787
 H         -3.1621266383        1.3991527492        1.2679680774
 H         -2.6305626867       -0.0365196447        2.1470853526
 H          4.1762187576       -0.0457030959        1.2956272042
 H          2.6283852230       -0.0450325587        2.1480104942
 H          3.1589458359        1.3948253046        1.2751711444
