  42
        -56.89255274
 N         -1.0840225310        0.0092089551        0.4854354173
 C         -0.0001522724       -0.0008501925       -0.2836901446
 N          1.0839443520       -0.0069350184        0.4851485550
 H         -0.0004404050       -0.0035359694       -1.3561975330
 C          0.6809039700       -0.0001725724        1.7863741504
 C         -0.6806170221        0.0091704914        1.7865708476
 C         -2.4401399719        0.0211031293        0.0334334621
 C          2.4400204159       -0.0209957801        0.0331157341
 C         -3.1291700760       -1.1894267358       -0.0423204334
 C         -3.0226568539        1.2431381833       -0.3019824799
 C          3.0212525886       -1.2440961157       -0.3006380461
 C          3.1304060893        1.1886847097       -0.0441709688
 H          1.3785172945       -0.0072439705        2.5988103600
 H         -1.3781239972        0.0202384587        2.5990581529
 C         -4.4481638827       -1.1542932646       -0.4733685042
 C         -2.4605399813       -2.4780011740        0.3260293411
 C         -4.3439527017        1.2321973686       -0.7275889405
 C          4.3426951825       -1.2351797079       -0.7258618051
 C          5.0492720810       -0.0488917928       -0.8116135085
 C          4.4494696813        1.1515142023       -0.4748279504
 C         -5.0491706755        0.0449963786       -0.8119820070
 H         -4.8202482654        2.1630889721       -0.9917936443
 C          2.4632791031        2.4785390344        0.3224133424
 C          2.2405828842       -2.5189995111       -0.2047811601
 H          4.8180522479       -2.1669705833       -0.9885808798
 H          6.0756118865       -0.0600416851       -1.1423932077
 H          5.0073809458        2.0719082918       -0.5443525269
 H         -6.0753723178        0.0545561377       -1.1432387767
 H         -5.0050545690       -2.0753897145       -0.5417661737
 C         -2.2433082107        2.5189444350       -0.2074447749
 H         -2.1673573357       -2.4802802687        1.3756431994
 H         -1.5660255796       -2.6408549552       -0.2751949678
 H         -3.1360064890       -3.3118410655        0.1622141761
 H         -2.8983695059        3.3708244891       -0.3616658436
 H         -1.4642554145        2.5524926651       -0.9696402808
 H         -1.7702328263        2.6228708279        0.7685853614
 H          2.8955943130       -3.3717651266       -0.3536603305
 H          1.4646156283       -2.5545601082       -0.9699403202
 H          1.7636598637       -2.6194907011        0.7697003489
 H          1.5644806759        2.6380270743       -0.2732501396
 H          3.1370776577        3.3120435338        0.1501865558
 H          2.1774593253        2.4855322192        1.3740458675
