  20
        -24.78164260
 N         -1.1335592057       -0.3684769293       -0.0139061153
 C         -0.0000179533       -1.0638633059        0.0869710983
 N          1.1335454878       -0.3684864461       -0.0137566864
 C         -2.3865213797       -1.0784690087        0.0268836716
 C          2.3864787901       -1.0785221070        0.0267893071
 H         -2.9429136454       -0.9347037344       -0.9049532066
 H         -3.0071150864       -0.7256469677        0.8567898733
 H         -2.1780832033       -2.1370646146        0.1596354830
 H          2.1779868737       -2.1370196341        0.1601197787
 H          3.0076115300       -0.7252940471        0.8561740293
 H          2.9422729890       -0.9354154696       -0.9054855115
 C         -1.2380580698        1.0689774307       -0.2200273323
 C          1.2381183345        1.0689621825       -0.2199304982
 C          0.0000175813        1.7491156681        0.3522084323
 H         -2.1394105206        1.4356736285        0.2820019466
 H         -1.3325602006        1.2900552384       -1.2932720416
 H         -0.0000100765        1.6327956750        1.4386123631
 H          0.0000717172        2.8133851494        0.1154127746
 H          1.3327271917        1.2900616213       -1.2931716519
 H          2.1394068688        1.4356698176        0.2822254342
  20
        -24.77851118
 N         -1.1306454589       -0.3666902469        0.0155719739
 C          0.0059299591       -1.0555431405       -0.0871811934
 N          1.1394556283       -0.3590903356        0.0156792391
 C         -2.3801868172       -1.0826247273       -0.0302066288
 C          2.3811855268       -1.1046922496       -0.0296397841
 H         -2.1661732648       -2.1399973886       -0.1635932491
 H         -2.9995713126       -0.7315003806       -0.8617572810
 H         -2.9402053431       -0.9422975026        0.8999089937
 H          2.4883971923       -1.6133218980       -0.9901054328
 H          2.4036480410       -1.8605474820        0.7578024312
 H          3.2245945051       -0.4311158494        0.1093466056
 C         -1.2421848286        1.0699275605        0.2227231397
 C          1.2349904518        1.0803059781        0.2211474789
 C         -0.0071847213        1.7526999471       -0.3521738731
 H         -1.3354103042        1.2907833603        1.2960387518
 H         -2.1456815367        1.4331021130       -0.2779020633
 H         -0.0102049433        2.8176747819       -0.1183168465
 H         -0.0075311261        1.6331493791       -1.4382025659
 H          2.1297049721        1.4593831135       -0.2824630665
 H          1.3247846510        1.3047985363        1.2943182372
