  19
        -22.61207118
 N         -1.1712936815       -0.1013876794        0.0305827297
 C         -0.0000318115       -0.7316916817       -0.0000712445
 N          1.1712506567       -0.1014086631       -0.0305794602
 C         -2.3370672891       -0.9540515653       -0.0877725225
 C          2.3370062631       -0.9541107357        0.0878192348
 H         -2.9843185607       -0.8496906081        0.7882450440
 H         -2.0072133801       -1.9863992212       -0.1678237963
 H         -2.9154468380       -0.6918417588       -0.9787432502
 H          2.0071080191       -1.9863671541        0.1687855252
 H          2.9157857886       -0.6912492258        0.9783361546
 H          2.9838717930       -0.8504693874       -0.7885774804
 C         -1.5305630493        1.3125141668        0.1155243871
 H         -2.5077533194        1.3938668305        0.5939790951
 H         -1.5991966661        1.7725577580       -0.8759164417
 H         -0.8152202187        1.8594903245        0.7231572757
 C          1.5306784780        1.3124547276       -0.1155236851
 H          2.5075941326        1.3937278968       -0.5946239688
 H          1.6000687282        1.7722956220        0.8759883715
 H          0.8150492177        1.8597057976       -0.7225679846
  19
        -22.61116392
 N         -1.1853324822       -0.0978084459        0.0028777716
 C         -0.0059452832       -0.7119280206       -0.0013880924
 N          1.1673838767       -0.0879055740       -0.0047950784
 C         -2.3359049953       -0.9811366510        0.0005865765
 C          2.3261665893       -0.9596620683        0.0003366733
 H         -1.9833593527       -2.0091250789       -0.0026252954
 H         -2.9518029383       -0.8114346124       -0.8872813544
 H         -2.9511784376       -0.8167745198        0.8898945902
 H          1.9894870325       -1.9925911560        0.0009184668
 H          2.9390425370       -0.7786533800        0.8886565260
 H          2.9447045103       -0.7813955107       -0.8845811103
 C         -1.5573693567        1.3181802423        0.0060522513
 H         -1.1672705286        1.8261295803        0.8912497315
 H         -2.6427268382        1.3973677528        0.0261251833
 H         -1.2007534024        1.8224407304       -0.8956644680
 C          1.5843954690        1.3106332480       -0.0044116657
 H          2.1732824796        1.5171483899        0.8954158043
 H          0.7459431268        1.9919320367       -0.0335200216
 H          2.2188960135        1.5007783728       -0.8759545645
