  42
        -56.95898166
 N         -1.0824893641       -0.0000200543        0.4798471642
 C          0.0002291019        0.0000452496       -0.2915470786
 N          1.0825816633        0.0036329696        0.4803651571
 H          0.0005482762       -0.0021538029       -1.3642422089
 C          0.6803178712        0.0057007552        1.7832158401
 C         -0.6808103080        0.0037008042        1.7828793404
 C         -2.4378987570       -0.0055674550        0.0315088490
 C          2.4380276935        0.0061038812        0.0320597949
 C         -3.0582214505       -1.2317364126       -0.2077903271
 C         -3.0922149625        1.2149823540       -0.1354796895
 C          3.0899606612       -1.2159204869       -0.1334714066
 C          3.0606211851        1.2307446892       -0.2091080587
 H          1.3774471759        0.0098171976        2.5956898750
 H         -1.3782855289        0.0030569500        2.5950680274
 C         -4.3803048850       -1.2147939811       -0.6308846453
 C         -2.3140073705       -2.5169554938       -0.0169197013
 C         -4.4136139446        1.1863235039       -0.5600073947
 C          4.4112079280       -1.1903006263       -0.5586916245
 C          5.0505981608        0.0115983174       -0.8054959868
 C          4.3824941135        1.2107528271       -0.6327609818
 C         -5.0508106858       -0.0171381547       -0.8048488982
 H         -4.9456667667        2.1147298322       -0.6978087793
 C          2.3187898368        2.5175897738       -0.0199088985
 C          2.3789171104       -2.5057383292        0.1359244590
 H          4.9414021509       -2.1199323923       -0.6954237527
 H          6.0784342328        0.0136497196       -1.1341752281
 H          4.8903721373        2.1426774505       -0.8266075325
 H         -6.0788003450       -0.0217669221       -1.1330250989
 H         -4.8866270673       -2.1478733794       -0.8232532423
 C         -2.3833759853        2.5065004569        0.1315989733
 H         -1.8914865494       -2.5800704448        0.9844403418
 H         -1.5012633019       -2.6005144816       -0.7373757945
 H         -2.9806280286       -3.3620150407       -0.1612425363
 H         -2.0116015824        2.5435421177        1.1542773785
 H         -3.0590465237        3.3436558062       -0.0165450975
 H         -1.5375604054        2.6288833567       -0.5435900795
 H          1.5337155922       -2.6285186861       -0.5399179621
 H          2.0058997738       -2.5398457619        1.1582371781
 H          3.0534427430       -3.3442504868       -0.0095000554
 H          1.5060709333        2.6015298827       -0.7403899368
 H          2.9869384763        3.3612261191       -0.1655756959
 H          1.8965403044        2.5829229390        0.9814347509
