  15
        -20.59256246
 C          0.6761821348       -1.1930351498       -0.0000225799
 C         -0.6761810895       -1.1930395096       -0.0000005008
 N          1.0637362045        0.1242959777        0.0000223318
 N         -1.0637385503        0.1242886516        0.0000526878
 C         -0.0000007331        0.9664693587        0.0000487956
 H          1.3781213277       -2.0024811423        0.0000760493
 H         -1.3780851517       -2.0025183090        0.0000380591
 C          2.4289433772        0.5612711543       -0.0000420559
 C         -2.4289417084        0.5612726032       -0.0000503471
 H          2.9533901126        0.1976488685       -0.8877217827
 H         -2.4361410172        1.6495464579       -0.0003160047
 H         -2.9533698152        0.1976297301       -0.8877742963
 H          2.9533541725        0.1980518096        0.8878889169
 H          2.4361563559        1.6495236312       -0.0002754603
 H         -2.9534169923        0.1980795269        0.8878366905
  15
        -20.59142870
 C          0.6747368642       -1.1936569387       -0.0003275872
 C         -0.6779395780       -1.1940296371        0.0002965755
 N          1.0645263023        0.1216511046       -0.0011901114
 N         -1.0636015304        0.1239805432        0.0000940687
 C         -0.0006681993        0.9651516694       -0.0007372275
 H          1.3744894761       -2.0053223506       -0.0005367728
 H         -1.3801280422       -2.0029922856        0.0004886975
 C          2.4300221646        0.5654270522        0.0011161881
 C         -2.4283511327        0.5627700910        0.0003912038
 H          3.0975814266       -0.2950581259       -0.0328613681
 H         -2.9530921905        0.2003632206       -0.8875557677
 H         -2.9528838428        0.1993150967        0.8880256573
 H          2.6399156555        1.1448792215        0.9025009420
 H          2.6217768826        1.2019050605       -0.8646536624
 H         -2.4342951714        1.6509691679        0.0010155076
  15
        -20.59026671
 C          0.6765270461       -1.1946328671        0.0002176033
 C         -0.6765018199       -1.1945339809       -0.0002003009
 N          1.0643390083        0.1214069292        0.0009308244
 N         -1.0643724237        0.1213861046        0.0005512316
 C          0.0000579959        0.9639282780        0.0010430542
 H          1.3762832580       -2.0060218611        0.0003660122
 H         -1.3763749954       -2.0058680081       -0.0004521381
 C          2.4294669314        0.5667792779       -0.0011657498
 C         -2.4294945321        0.5667546987       -0.0008720159
 H          3.0980224205       -0.2931904823        0.0245031965
 H         -3.0980522597       -0.2934472614        0.0155021778
 H         -2.6253037249        1.1890916364        0.8742830954
 H          2.6227770399        1.1968500365        0.8689249022
 H          2.6360845692        1.1534344763       -0.8985434445
 H         -2.6336347692        1.1612793399       -0.8935321611
