  41
        -56.71753180
 N         -1.0646445162       -0.0225130610        0.4437195841
 C         -0.0000567644       -0.0009884658       -0.4017390179
 N          1.0648060310        0.0171264641        0.4435112256
 C          0.6754596487        0.0033375262        1.7637847498
 C         -0.6749528366       -0.0140977687        1.7639257104
 C         -2.4156622942       -0.0553832462        0.0280254465
 C          2.4156120506        0.0541728036        0.0275498884
 C         -3.2327490066        1.0532284610        0.2531091687
 C         -2.9056131789       -1.2036072767       -0.5986763589
 C          3.2359382536       -1.0525189783        0.2501885563
 C          2.9022229441        1.2051528268       -0.5968065840
 H          1.3792212070        0.0261355959        2.5708096506
 H         -1.3785383930       -0.0400954138        2.5710141433
 C         -4.2390162614       -1.2340923717       -0.9782208452
 C         -5.0660085061       -0.1498244120       -0.7439859403
 C         -4.5636027916        0.9858501002       -0.1372844756
 C          4.5665308760       -0.9804677186       -0.1403427866
 C          5.0655845023        0.1578856907       -0.7447478564
 C          4.2354364343        1.2402744749       -0.9765356764
 C         -2.6870040283        2.2953254345        0.8923763411
 C         -2.0007788439       -2.3725381169       -0.8421220303
 H         -4.6320363807       -2.1171534878       -1.4600841074
 H         -6.1031251612       -0.1880711748       -1.0419654056
 H         -5.2069963790        1.8366415302        0.0329775011
 C          2.6942062514       -2.2976206220        0.8870151267
 H          4.6258409155        2.1255023804       -1.4565417347
 C          1.9941239293        2.3721328353       -0.8374450667
 H          5.2123972616       -1.8297578182        0.0280385102
 H          6.1025293299        0.1997367025       -1.0428370333
 H         -1.6638430503       -2.7948501308        0.1051688071
 H         -1.1201163630       -2.0499496961       -1.3956523328
 H         -2.5151114499       -3.1462252078       -1.4046412553
 H         -1.6777676986        2.4974730903        0.5378601442
 H         -2.6478654273        2.1868255933        1.9764540526
 H         -3.3186881765        3.1487007263        0.6606128413
 H          1.1152208488        2.0486786933       -1.3932716342
 H          2.5068278963        3.1493413119       -1.3965816999
 H          1.6545283580        2.7901003195        0.1108310355
 H          3.3271455538       -3.1489807817        0.6512721729
 H          1.6845760716       -2.5008933961        0.5343324060
 H          2.6574845352       -2.1924386279        1.9715007620
  41
        -56.71747021
 N         -1.0604063112       -0.1626888355        0.4133784998
 C         -0.0043127673        0.1409631139       -0.3890484221
 N          1.0677161332       -0.0645891273        0.4213656134
 C          0.6913636275       -0.4716506640        1.6816575851
 C         -0.6573677626       -0.5341711006        1.6765160849
 C         -2.4150330901       -0.1176360136        0.0123308945
 C          2.4172627369        0.1049685809        0.0339297888
 C         -2.9884197411        1.1136318530       -0.3158025650
 C         -3.1574603819       -1.2985950684       -0.0420075946
 C          3.2395312924       -1.0153959806       -0.0955298816
 C          2.9030343237        1.3928635041       -0.2017380610
 H          1.4020196639       -0.6578532192        2.4611837343
 H         -1.3528182878       -0.7838542863        2.4516725212
 C         -4.4953419737       -1.2255225318       -0.4069522729
 C         -5.0789565296       -0.0123814926       -0.7188388978
 C         -4.3261552886        1.1476803225       -0.6793220738
 C          4.5697554195       -0.8251465170       -0.4442143017
 C          5.0675620830        0.4451141487       -0.6665666214
 C          4.2364297515        1.5450319757       -0.5517210517
 C         -2.1665869200        2.3647809199       -0.2731630887
 C         -2.5312505549       -2.6250729009        0.2723060192
 H         -5.0795996956       -2.1330254284       -0.4510638619
 H         -6.1205708533        0.0289020325       -1.0001938023
 H         -4.7818257131        2.0939202867       -0.9311362246
 C          2.6960823578       -2.3958325941        0.1241668739
 H          4.6260842071        2.5358040285       -0.7332472736
 C          1.9931632759        2.5755583001       -0.0745476926
 H          5.2167761020       -1.6840603691       -0.5463318197
 H          6.1045742409        0.5781227782       -0.9363026737
 H         -2.5284089370       -2.8071126706        1.3471394782
 H         -1.5014313484       -2.6589765059       -0.0784486345
 H         -3.0898072416       -3.4271087069       -0.2032237007
 H         -1.7187610175        2.4965159338        0.7113564368
 H         -2.7769911255        3.2337157510       -0.5012065437
 H         -1.3574456255        2.2953540702       -0.9980720042
 H          1.5719681248        2.6279951192        0.9292486133
 H          1.1662037525        2.4798671434       -0.7758778926
 H          2.5295567640        3.4976335462       -0.2784475341
 H          3.3575255266       -3.1380107231       -0.3145087260
 H          1.7097992989       -2.4932438935       -0.3270388077
 H          2.6014128202       -2.6106699000        1.1886637809
  41
        -56.71741565
 N         -1.0667636632        0.0239722913        0.4232291060
 C          0.0041632378       -0.1048251924       -0.4017162870
 N          1.0596559963        0.1370413716        0.4238293231
 C          0.6551653947        0.4007383841        1.7127648546
 C         -0.6933701359        0.3268347892        1.7129442139
 C         -2.4179611549       -0.1227337888        0.0273282370
 C          2.4130321875        0.1301071619        0.0171833924
 C         -3.1711788591        1.0164708372       -0.2579942527
 C         -2.9704490769       -1.4012876944       -0.0541058004
 C          2.9821989537       -1.0637645009       -0.4345243491
 C          3.1579889656        1.3091109141        0.0767513282
 H          1.3487957853        0.5919333354        2.5059037932
 H         -1.4076102487        0.4522580092        2.5018063123
 C         -4.3040129890       -1.5237777177       -0.4168295586
 C         -5.0663510128       -0.4029052105       -0.6923241613
 C         -4.5023131504        0.8575939432       -0.6162081744
 C          4.3186671660       -1.0647050881       -0.8035187988
 C          5.0745531472        0.0918867695       -0.7297912716
 C          4.4948293897        1.2693317377       -0.2978161698
 C         -2.5404712756        2.3739873370       -0.1825800872
 C         -2.1282888531       -2.6026194230        0.2485018129
 H         -4.7469928545       -2.5065857145       -0.4824886801
 H         -6.1036707669       -0.5123241293       -0.9713492630
 H         -5.0986179611        1.7301746913       -0.8390047951
 C          2.1570739984       -2.3114186971       -0.5116631454
 H          5.0811524864        2.1755120289       -0.2534145683
 C          2.5379717855        2.6006967336        0.5218745187
 H          4.7711957333       -1.9821187030       -1.1499549482
 H          6.1153905385        0.0762264166       -1.0166229831
 H         -1.7905118139       -2.5803876181        1.2848262807
 H         -1.2450011265       -2.6073290820       -0.3882776590
 H         -2.6894912000       -3.5178848532        0.0842928105
 H         -1.6255307487        2.3939611156       -0.7738856738
 H         -2.2778714975        2.6200771755        0.8465393819
 H         -3.2193539811        3.1344617921       -0.5577253540
 H          1.4991098701        2.6621655599        0.2034955191
 H          3.0831319006        3.4429141712        0.1035589461
 H          2.5647970299        2.6884705406        1.6081863906
 H          1.3055500694       -2.1469188677       -1.1698937406
 H          1.7710366548       -2.5749892214        0.4728964395
 H          2.7483978876       -3.1402630836       -0.8896402230
  41
        -56.71675710
 N         -1.0784397327        0.3732238861        0.1908891414
 C          0.0096844095       -0.3584649935       -0.1707968468
 N          1.0495710688        0.4521616577        0.1569869317
 C          0.6238946188        1.6440955819        0.7002772036
 C         -0.7256171588        1.5912308585        0.7264722736
 C         -2.4165393988       -0.0546415511        0.0333533620
 C          2.4126002140        0.1150587758       -0.0165288956
 C         -3.1999523029       -0.2996698057        1.1620117767
 C         -2.9286739673       -0.2219978456       -1.2558815950
 C          2.9718474595       -0.8573732645        0.8181164352
 C          3.1740494821        0.7526088277       -0.9954532022
 H          1.3071586274        2.4025421095        1.0259979457
 H         -1.4511699279        2.3078241915        1.0536537834
 C         -4.2502067648       -0.6170109829       -1.3981916576
 C         -5.0447990812       -0.8438674038       -0.2884014706
 C         -4.5201569830       -0.6905737539        0.9808263926
 C          4.3126101726       -1.1739242068        0.6673527608
 C          5.0841876145       -0.5395075998       -0.2907750296
 C          4.5167449006        0.4122471897       -1.1148822280
 C         -2.6327223528       -0.1576384774        2.5433500243
 C         -2.0619382694        0.0322128743       -2.4509673235
 H         -4.6598895861       -0.7461165860       -2.3891315172
 H         -6.0730977183       -1.1483651658       -0.4139869707
 H         -5.1370376597       -0.8812135737        1.8468242536
 C          2.1260105166       -1.5325674778        1.8542125113
 H          5.1160519354        0.9014622270       -1.8687327783
 C          2.5804200912        1.7546066192       -1.9412853481
 H          4.7559394675       -1.9217848345        1.3081205813
 H          6.1288390788       -0.7914880105       -0.3960143440
 H         -2.5793023200       -0.2421710820       -3.3656105879
 H         -1.1412508766       -0.5433448468       -2.3696711787
 H         -1.7920340039        1.0873063750       -2.5055380862
 H         -1.6001450534       -0.5009123984        2.5727123574
 H         -3.2164421992       -0.7388103446        3.2523429311
 H         -2.6512396942        0.8841503105        2.8639986776
 H          3.2779924239        2.5705445232       -2.1173220057
 H          1.6467144369        2.1651745160       -1.5669837722
 H          2.3769531727        1.2727603209       -2.8977459637
 H          1.7841338131       -0.8095353969        2.5956164093
 H          2.6880221439       -2.3113722381        2.3613485702
 H          1.2462851690       -1.9717419954        1.3856585429
