  41
        -56.71753180
 N         -1.0646445162       -0.0225130610        0.4437195841
 C         -0.0000567644       -0.0009884658       -0.4017390179
 N          1.0648060310        0.0171264641        0.4435112256
 C          0.6754596487        0.0033375262        1.7637847498
 C         -0.6749528366       -0.0140977687        1.7639257104
 C         -2.4156622942       -0.0553832462        0.0280254465
 C          2.4156120506        0.0541728036        0.0275498884
 C         -3.2327490066        1.0532284610        0.2531091687
 C         -2.9056131789       -1.2036072767       -0.5986763589
 C          3.2359382536       -1.0525189783        0.2501885563
 C          2.9022229441        1.2051528268       -0.5968065840
 H          1.3792212070        0.0261355959        2.5708096506
 H         -1.3785383930       -0.0400954138        2.5710141433
 C         -4.2390162614       -1.2340923717       -0.9782208452
 C         -5.0660085061       -0.1498244120       -0.7439859403
 C         -4.5636027916        0.9858501002       -0.1372844756
 C          4.5665308760       -0.9804677186       -0.1403427866
 C          5.0655845023        0.1578856907       -0.7447478564
 C          4.2354364343        1.2402744749       -0.9765356764
 C         -2.6870040283        2.2953254345        0.8923763411
 C         -2.0007788439       -2.3725381169       -0.8421220303
 H         -4.6320363807       -2.1171534878       -1.4600841074
 H         -6.1031251612       -0.1880711748       -1.0419654056
 H         -5.2069963790        1.8366415302        0.0329775011
 C          2.6942062514       -2.2976206220        0.8870151267
 H          4.6258409155        2.1255023804       -1.4565417347
 C          1.9941239293        2.3721328353       -0.8374450667
 H          5.2123972616       -1.8297578182        0.0280385102
 H          6.1025293299        0.1997367025       -1.0428370333
 H         -1.6638430503       -2.7948501308        0.1051688071
 H         -1.1201163630       -2.0499496961       -1.3956523328
 H         -2.5151114499       -3.1462252078       -1.4046412553
 H         -1.6777676986        2.4974730903        0.5378601442
 H         -2.6478654273        2.1868255933        1.9764540526
 H         -3.3186881765        3.1487007263        0.6606128413
 H          1.1152208488        2.0486786933       -1.3932716342
 H          2.5068278963        3.1493413119       -1.3965816999
 H          1.6545283580        2.7901003195        0.1108310355
 H          3.3271455538       -3.1489807817        0.6512721729
 H          1.6845760716       -2.5008933961        0.5343324060
 H          2.6574845352       -2.1924386279        1.9715007620
