30
Properties=species:S:1:pos:R:3 energy=-8360.907063802084 free_energy=-8360.907063802084 pbc="F F F"
C        0.00570500       0.67907000      -1.86558600
C       -0.00571100      -0.67907000      -1.86558600
H        0.00369400       1.39477000      -2.68520200
H       -0.00370200      -1.39477000      -2.68520200
C        0.00682500       2.43961400      -0.07387700
C       -0.89425000       2.81827500       0.91904600
C        0.91026700       3.34608400      -0.62549800
C       -0.87854600       4.13450500       1.37625500
H       -1.60855800       2.09447900       1.32071700
C        0.90608500       4.66192100      -0.16795300
H        1.61597000       3.02210500      -1.39519500
C        0.01700500       5.05568000       0.83305500
H       -1.58088900       4.44188800       2.15519900
H        1.61161500       5.38152900      -0.59124200
H        0.02103000       6.08841300       1.19172100
C       -0.00682700      -2.43961400      -0.07387600
C        0.89424700      -2.81827300       0.91904900
C       -0.91026500      -3.34608600      -0.62549900
C        0.87854700      -4.13450300       1.37625700
H        1.60855300      -2.09447600       1.32072100
C       -0.90608100      -4.66192300      -0.16795500
H       -1.61596800      -3.02210800      -1.39519700
C       -0.01700100      -5.05568000       0.83305400
H        1.58088900      -4.44188400       2.15520300
H       -1.61160700      -5.38153300      -0.59124600
H       -0.02102300      -6.08841400       1.19171900
C       -0.00000000       0.00000000       0.23544000
H        0.00000100       0.00000100       1.32614300
N        0.00735700       1.08177200      -0.54249200
N       -0.00736100      -1.08177100      -0.54249200
