  16
  -20.7608046100000       7.124897161401400E-002 !gc
 C          0.6808997077       -1.1934258741        0.0000093703
 C         -0.6809427927       -1.1933930134       -0.0000082304
 N          1.0860528183        0.1066117391        0.0000304936
 N         -1.0860325536        0.1066623624       -0.0000664540
 C          0.0000281986        0.8745334577       -0.0000046543
 H          1.3708985209       -2.0126557092        0.0000142029
 H         -1.3709880865       -2.0125829092        0.0000049288
 C          2.4535597342        0.5517568302       -0.0000015051
 C         -2.4535754185        0.5517556666        0.0000348520
 H          2.9691475752        0.1779807251        0.8853410463
 H          2.4908340091        1.6385760002       -0.0012095846
 H          2.9697079732        0.1759245133       -0.8841170081
 H          0.0000533481        1.9476922912       -0.0001487847
 H         -2.9701453815        0.1746022049       -0.8832927568
 H         -2.4908509889        1.6386599922       -0.0027197720
 H         -2.9685742785        0.1792394841        0.8862719585
  16
  -20.7608045900000       7.124746372396125E-002 !gc
 C          0.6809063842       -1.1934041234        0.0000072128
 C         -0.6809469729       -1.1933822878       -0.0000084124
 N          1.0860498494        0.1066276648        0.0001422338
 N         -1.0860384155        0.1066608127        0.0001114876
 C          0.0000212291        0.8745371210        0.0002045618
 H          1.3708901434       -2.0126489485       -0.0000520692
 H         -1.3709226362       -2.0126320379       -0.0000410602
 C          2.4535815762        0.5517343777       -0.0001854129
 C         -2.4535730040        0.5517425118       -0.0001789025
 H          2.9705994796        0.1737678948        0.8825436306
 H          2.4908864851        1.6385836718        0.0035673364
 H          2.9682432946        0.1800256929       -0.8869715797
 H         -0.0000523211        1.9476959889        0.0003408425
 H         -2.9698130074        0.1762366907        0.8840941303
 H         -2.9689913916        0.1775374591       -0.8855848708
 H         -2.4908703902        1.6386640552        0.0004957518
  16
  -20.7608045800000       7.124670979090210E-002 !md1
 C          0.6809167710       -1.1934196336        0.0000254124
 C         -0.6809367758       -1.1934091576       -0.0000345555
 N          1.0860519054        0.1066115357        0.0001713380
 N         -1.0860484748        0.1066285898        0.0000683929
 C          0.0000061225        0.8745083731        0.0001728880
 H          1.3708686478       -2.0126921725        0.0000350017
 H         -1.3708971486       -2.0126731586       -0.0000800861
 C          2.4535606227        0.5517715292       -0.0001892451
 C         -2.4535552150        0.5518064600       -0.0001384718
 H          2.9675381819        0.1823261592       -0.8883039781
 H          2.9712946542        0.1716355595        0.8811428088
 H          2.4908329010        1.6385937085        0.0062288810
 H          0.0000254501        1.9476650332        0.0002499693
 H         -2.9704744327        0.1740637507        0.8827757731
 H         -2.9683838588        0.1799544815       -0.8868172844
 H         -2.4907510796        1.6386718801        0.0033914250
  16
  -20.7608045600000       7.124520194898568E-002 !mtd3
 C          0.6809115258       -1.1934124482       -0.0000301618
 C         -0.6809341184       -1.1934002302        0.0000068999
 N          1.0860419671        0.1066232350        0.0002901332
 N         -1.0860396403        0.1066451240        0.0003216497
 C          0.0000084077        0.8745326067        0.0004203180
 H          1.3709466621       -2.0126131709       -0.0001662865
 H         -1.3709657083       -2.0126038549       -0.0001234931
 C          2.4535680125        0.5517448326       -0.0003960095
 C         -2.4535599295        0.5517744987       -0.0004316753
 H          2.9675837916        0.1812251694       -0.8880517071
 H          2.9712309004        0.1725925497        0.8814130579
 H          2.4908552316        1.6385642722        0.0047679448
 H          0.0000200282        1.9476864507        0.0008283216
 H         -2.4908474131        1.6385962415        0.0060140673
 H         -2.9715844567        0.1715767640        0.8807057720
 H         -2.9671986563        0.1823466767       -0.8887578305
  16
  -20.7608045100000       7.124143248340409E-002 !gc
 C          0.6809217742       -1.1934066826       -0.0000417759
 C         -0.6809276361       -1.1934053064        0.0000496112
 N          1.0860401596        0.1066323685       -0.0003599852
 N         -1.0860445921        0.1066256065       -0.0001843328
 C         -0.0000019993        0.8745329674       -0.0003628829
 H          1.3709479558       -2.0126128321        0.0000735776
 H         -1.3709445509       -2.0126170349        0.0002202967
 C          2.4535664013        0.5517355679        0.0004185334
 C         -2.4535566285        0.5517926715        0.0003039716
 H          2.4908982384        1.6385494906       -0.0105952511
 H          2.9727233685        0.1677192028       -0.8784048721
 H          2.9660483666        0.1860801935        0.8910379582
 H          0.0000014281        1.9476869381       -0.0006287028
 H         -2.9711614742        0.1724650268       -0.8814418370
 H         -2.4908193428        1.6385931197       -0.0050603550
 H         -2.9676551711        0.1815326293        0.8879845872
  16
  -20.7608044600000       7.123766321725868E-002 !md4
 C          0.6809173111       -1.1934128142       -0.0001055259
 C         -0.6809322338       -1.1934024127        0.0000966311
 N          1.0860433934        0.1066189394        0.0000093123
 N         -1.0860415388        0.1066374671        0.0004288087
 C          0.0000089328        0.8745309956        0.0003023958
 H          1.3709506762       -2.0126111229       -0.0002694226
 H         -1.3709630163       -2.0126031369        0.0000653386
 C          2.4535623979        0.5517475236       -0.0001608510
 C         -2.4535576512        0.5517834460       -0.0004140724
 H          2.9699844409        0.1756689037        0.8836919834
 H          2.4908053950        1.6384845446        0.0012597701
 H          2.9688892778        0.1782574696       -0.8858381360
 H         -0.0000105276        1.9476831399        0.0004509271
 H         -2.4908952233        1.6385166332        0.0140010957
 H         -2.9736245647        0.1650149846        0.8765919323
 H         -2.9651474157        0.1890366619       -0.8926883478
  16
  -20.7608043900000       7.123238657984847E-002 !mtd13
 C          0.6809116333       -1.1934141674        0.0000680234
 C         -0.6809356695       -1.1934019601       -0.0000435373
 N          1.0860475638        0.1066190264       -0.0002581921
 N         -1.0860413332        0.1066460523       -0.0004651698
 C          0.0000100236        0.8745308861       -0.0004585768
 H          1.3709238871       -2.0126354274        0.0002539810
 H         -1.3709648205       -2.0126064028        0.0000055320
 C          2.4535512510        0.5517464429        0.0004177079
 C         -2.4535439540        0.5517725298        0.0005288326
 H          2.4908681469        1.6385235000       -0.0089668023
 H          2.9722547566        0.1691617669       -0.8792350731
 H          2.9665395429        0.1848030061        0.8901344140
 H          0.0000212460        1.9476863323       -0.0008370143
 H         -2.4908917392        1.6385067545       -0.0146485032
 H         -2.9648193162        0.1896707380        0.8932608901
 H         -2.9739382614        0.1643722957       -0.8760217171
  16
  -20.7608042100000       7.121881987797274E-002 !md6
 C          0.6809227597       -1.1934070185       -0.0002142833
 C         -0.6809350184       -1.1934255751        0.0002281690
 N          1.0860420224        0.1066233639       -0.0006366652
 N         -1.0860661456        0.1065964514        0.0000040125
 C         -0.0000067865        0.8745041300       -0.0004167656
 H          1.3709303129       -2.0126290839       -0.0001979580
 H         -1.3708623907       -2.0127122853        0.0004195445
 C          2.4535551849        0.5517695974        0.0006284334
 C         -2.4535105153        0.5518327094        0.0002106023
 H          2.4909390120        1.6383514425       -0.0229420243
 H          2.9762084211        0.1574307320       -0.8714172383
 H          2.9624791347        0.1967423977        0.8975812877
 H         -0.0001857195        1.9476600064       -0.0006912023
 H         -2.9688239778        0.1784047364        0.8858530467
 H         -2.9699640473        0.1757181965       -0.8836121915
 H         -2.4906908692        1.6386674332       -0.0013989516
  16
  -20.7608041500000       7.121429821814310E-002 !md6
 C          0.6809101546       -1.1934199102       -0.0002031454
 C         -0.6809336280       -1.1934031037        0.0002130184
 N          1.0860421035        0.1066234963       -0.0008201144
 N         -1.0860362764        0.1066552144        0.0001073005
 C          0.0000099291        0.8745428071       -0.0004864240
 H          1.3709599999       -2.0125999482       -0.0001379771
 H         -1.3710006888       -2.0125759147        0.0004634252
 C          2.4535639965        0.5517414014        0.0007477271
 C         -2.4535599079        0.5517652173        0.0002102709
 H          2.9768700910        0.1559118444       -0.8702065663
 H          2.9617817367        0.1982122745        0.8987205309
 H          2.4910187684        1.6382715704       -0.0245382173
 H          0.0000446585        1.9476979219       -0.0009313924
 H         -2.9694484523        0.1769331916       -0.8844826976
 H         -2.4908702990        1.6385947848        0.0002756665
 H         -2.9693241111        0.1769346227        0.8850058063
  16
  -20.7604515900000       4.903902661402224E-002 !gc
 C          0.6792068743       -1.1972288378       -0.0009712551
 C         -0.6835002355       -1.1945010974        0.0010217886
 N          1.0876716317        0.0998543689       -0.0031246578
 N         -1.0850055308        0.1061205140        0.0011410409
 C          0.0021043320        0.8714985287       -0.0013346305
 H          1.3641676171       -2.0206589887       -0.0012213011
 H         -1.3751484877       -2.0122394255        0.0020264724
 C          2.4509590540        0.5611882641        0.0025538341
 C         -2.4512687933        0.5548297157        0.0001010600
 H          3.1220996661       -0.2886879117       -0.0966126582
 H          2.6734342860        1.0793048058        0.9363106312
 H          2.6228576490        1.2480280143       -0.8261621776
 H          0.0072396426        1.9446403750       -0.0022701896
 H         -2.9616652264        0.1995886212       -0.8959168370
 H         -2.4859215635        1.6415524463        0.0220468620
 H         -2.9743366940        0.1630102885        0.8730297575
  16
  -20.7604497400000       4.894311875890475E-002 !gc
 C          0.6791944193       -1.1972225938       -0.0008922891
 C         -0.6835166009       -1.1944647373        0.0009476922
 N          1.0876773223        0.0998646408       -0.0026306680
 N         -1.0849867951        0.1061665790        0.0007014183
 C          0.0021151673        0.8715281354       -0.0012786488
 H          1.3641395214       -2.0206623674       -0.0011517304
 H         -1.3751807265       -2.0121900431        0.0018880650
 C          2.4509772487        0.5611583214        0.0022809941
 C         -2.4512893789        0.5547571219        0.0002839527
 H          3.1223217273       -0.2899386801       -0.0840391964
 H          2.6701394780        1.0908541983        0.9302570456
 H          2.6260097059        1.2376378110       -0.8343385094
 H          0.0072310634        1.9446734521       -0.0021756613
 H         -2.4859489132        1.6416199211        0.0128025032
 H         -2.9715025315        0.1706361724        0.8783828237
 H         -2.9645790675        0.1914862382       -0.8908035825
  16
  -20.7604487900000       4.889394169368570E-002 !md6
 C          0.6834653766       -1.1944005199       -0.0011519231
 C         -0.6792453153       -1.1971235508        0.0011169855
 N          1.0850304590        0.1061896981       -0.0013133588
 N         -1.0876369611        0.1000450114        0.0024258769
 C         -0.0020404630        0.8715887299        0.0007676651
 H          1.3749054327       -2.0122844738       -0.0020531874
 H         -1.3640422440       -2.0206460574        0.0019593459
 C          2.4513669613        0.5546045851        0.0003946274
 C         -2.4511018345        0.5609741411       -0.0019016716
 H          2.9749275760        0.1620009595       -0.8718355224
 H          2.9609268064        0.1998516888        0.8970519398
 H          2.4863003102        1.6412349572       -0.0223665313
 H         -0.0070807058        1.9447426103        0.0011815678
 H         -3.1221906461       -0.2907364208        0.0803803751
 H         -2.6695236070        1.0944608012       -0.9278319394
 H         -2.6271340251        1.2340097197        0.8372808050
  16
  -20.7604484300000       4.887531908690584E-002 !gc
 C          0.6792019055       -1.1972523085        0.0007539695
 C         -0.6835363367       -1.1944533425       -0.0008245361
 N          1.0876804448        0.0998022057        0.0022745842
 N         -1.0849931355        0.1061599260       -0.0004676894
 C          0.0021299845        0.8715021562        0.0011468085
 H          1.3639511558       -2.0208481362        0.0009397736
 H         -1.3751687619       -2.0122107138       -0.0016068427
 C          2.4509621477        0.5612364322       -0.0019858541
 C         -2.4512841546        0.5547903734       -0.0003453830
 H          2.6676793295        1.0994485953       -0.9256044231
 H          3.1225000334       -0.2906348127        0.0748441705
 H          2.6282741980        1.2300154497        0.8403790046
 H          0.0075153357        1.9446472750        0.0018760156
 H         -2.9664209139        0.1864646333        0.8875724079
 H         -2.9696886108        0.1756888674       -0.8817133816
 H         -2.4858796877        1.6417064728       -0.0068413888
  16
  -20.7604442600000       4.866012345406844E-002 !gc
 C          0.6791912890       -1.1972362052       -0.0003506116
 C         -0.6835209357       -1.1944491360        0.0003553981
 N          1.0876749160        0.0998783162       -0.0010442165
 N         -1.0849964959        0.1061657052        0.0002441712
 C          0.0021118064        0.8715246608       -0.0005959630
 H          1.3641171849       -2.0206818349       -0.0004172293
 H         -1.3751899528       -2.0121765231        0.0007639385
 C          2.4510072670        0.5611555510        0.0009580298
 C         -2.4512977952        0.5547459349        0.0001803281
 H          2.6390737337        1.1949425148       -0.8660112479
 H          3.1229388300       -0.2931469490       -0.0332548927
 H          2.6565154538        1.1367680476        0.9041412101
 H          0.0072627151        1.9446800966       -0.0010239317
 H         -2.9670949654        0.1839317976       -0.8862820624
 H         -2.4859148816        1.6416879695        0.0036602961
 H         -2.9690380256        0.1781177004        0.8830213978
  16
  -20.7604408000000       4.848228726841593E-002 !gc
 C          0.6792078592       -1.1972757775       -0.0003570161
 C         -0.6835232768       -1.1944938211        0.0002774195
 N          1.0876770169        0.0998051008        0.0003638299
 N         -1.0850035248        0.1060979154        0.0018521757
 C          0.0021090241        0.8714704386        0.0014368746
 H          1.3640636276       -2.0207832752       -0.0009453261
 H         -1.3751462211       -2.0122575600        0.0000973222
 C          2.4509477343        0.5612672987       -0.0010249401
 C         -2.4512448861        0.5548663165       -0.0018712384
 H          2.6430152103        1.1822026034        0.8743981372
 H          2.6521525302        1.1501929139       -0.8964872474
 H          3.1231142497       -0.2933332035        0.0176091332
 H          0.0073141108        1.9446218180        0.0024825180
 H         -2.9858103112        0.1318829691        0.8490696429
 H         -2.9495326399        0.2322989318       -0.9170404258
 H         -2.4864894565        1.6401411499        0.0583594619
  16
  -20.7600804100000       3.311001091950375E-002 !gc
 C          0.6817083549       -1.1980981087        0.0008752784
 C         -0.6818413877       -1.1980086297       -0.0007896278
 N          1.0866525275        0.0996095336       -0.0003629635
 N         -1.0865822420        0.0998011611       -0.0032511634
 C          0.0000643455        0.8687878483       -0.0024089761
 H          1.3682565109       -2.0201098869        0.0020419641
 H         -1.3685801262       -2.0198581283       -0.0007134094
 C          2.4489488555        0.5636206621        0.0015246868
 C         -2.4489416456        0.5634771025        0.0032535678
 H          3.1229855649       -0.2893222633       -0.0226450063
 H          2.6500857408        1.1480611078        0.8999667112
 H          2.6384709825        1.1899829919       -0.8705010552
 H          0.0002050916        1.9419376012       -0.0041576843
 H         -2.6157207820        1.2620527729       -0.8163834178
 H         -2.6744609773        1.0690454596        0.9432682198
 H         -3.1214861394       -0.2836051512       -0.1099061479
  16
  -20.7600733400000       3.286322475000310E-002 !gc
 C          0.6817125769       -1.1982098597       -0.0006558186
 C         -0.6818785984       -1.1981349399        0.0005748353
 N          1.0866881847        0.0994087055        0.0002764276
 N         -1.0865877337        0.0996594807        0.0021204643
 C          0.0001014252        0.8686262435        0.0015684678
 H          1.3681864682       -2.0202849235       -0.0014962373
 H         -1.3684835938       -2.0200739292        0.0005708521
 C          2.4488492532        0.5639511020       -0.0009876400
 C         -2.4488709294        0.5637612611       -0.0021569153
 H          2.6405232392        1.1822160276        0.8764066675
 H          2.6475233079        1.1567644356       -0.8944029994
 H          3.1231378063       -0.2890415574        0.0136841837
 H          0.0000834556        1.9417977974        0.0026934436
 H         -2.6636587687        1.1045211553       -0.9247105580
 H         -2.6254192251        1.2313148968        0.8413401037
 H         -3.1222605514       -0.2868309095        0.0723522185
