20
Properties=species:S:1:pos:R:3 energy=-8347.217610677084 free_energy=-8347.217610677084 pbc="F F F"
C       -0.19316200       1.05126000       1.23746400
C        0.07746300      -1.10036600       0.00000000
C       -0.19316300       1.05126000      -1.23746400
C        0.35569500       1.73523300      -0.00000000
H       -1.26678200       1.28419200       1.36880500
H        0.32435900       1.41243300      -2.14079700
H        1.45642900       1.66993900      -0.00000100
N       -0.00506500      -0.39454600       1.14138700
N       -0.00506500      -0.39454600      -1.14138700
H       -1.26678300       1.28419100      -1.36880400
H        0.08661100       2.80155500      -0.00000000
H        0.32436100       1.41243300       2.14079600
C        0.00370500      -1.09171100       2.41105900
H        0.10129500      -2.16827400       2.22527800
H        0.84320600      -0.75699200       3.04493600
H       -0.93214500      -0.90973300       2.96824100
C        0.00370500      -1.09171100      -2.41105900
H        0.84320800      -0.75699400      -3.04493500
H        0.10129300      -2.16827400      -2.22527800
H       -0.93214300      -0.90973000      -2.96824300
