  28
        -33.51055655
 N         -1.0859246798       -0.0000185999       -0.0803289009
 C          0.0000177372        0.0003528326       -0.8463151627
 N          1.0859740019       -0.0003017485       -0.0803625413
 H         -0.0000070898        0.0011682850       -1.9190094319
 C          0.6804729118       -0.0012087482        1.2199881869
 C         -0.6803778728       -0.0010044504        1.2200142430
 C         -2.4656677026        0.0006827281       -0.5477165822
 C          2.4656503486        0.0000147166       -0.5476806359
 C         -3.1711179733       -1.2653310329       -0.0681461460
 H         -2.4271683324        0.0021727965       -1.6408657403
 C         -3.1708665805        1.2654687736       -0.0645569782
 C          3.1715345767       -1.2649205403       -0.0658908771
 C          3.1703107667        1.2660488943       -0.0668529791
 H          2.4271780460       -0.0004456309       -1.6408225515
 H          1.3624302975       -0.0017990104        2.0437702526
 H         -1.3621298626       -0.0015481140        2.0439960508
 H         -2.6337693864       -2.1535713850       -0.3912615096
 H         -4.1722160524       -1.3009718283       -0.4872957067
 H         -3.2562417739       -1.2801146184        1.0147753575
 H         -4.1718152769        1.3025556530       -0.4838918797
 H         -2.6331690108        2.1544513214       -0.3849856356
 H         -3.2563632263        1.2771515004        1.0184061203
 H          4.1704005630       -1.3039518439       -0.4899750811
 H          2.6312809479       -2.1539024541       -0.3820197872
 H          3.2622718344       -1.2747824971        1.0166321700
 H          2.6293033872        2.1541317986       -0.3841075779
 H          4.1692515709        1.3056377892       -0.4906491625
 H          3.2605997579        1.2770405904        1.0156618128
  28
        -33.51051228
 N         -1.0163758878       -0.0001298453        0.0277391480
 C          0.1655638724        0.0031231268       -0.5786943712
 N          1.1332500282       -0.0038321602        0.3340711972
 H          0.3106366267        0.0100755617       -1.6406922219
 C          0.5484311276       -0.0116125106        1.5626652007
 C         -0.7996098842       -0.0092726691        1.3721544940
 C         -2.3163988566        0.0045838561       -0.6297971485
 C          2.5666596240       -0.0026912565        0.0711832367
 C         -3.0830786524       -1.2627966627       -0.2605044306
 H         -2.1242531569        0.0109213603       -1.7065581147
 C         -3.0817773408        1.2682586055       -0.2454305170
 C          2.9562416420        1.2715837536       -0.6740977446
 C          2.9531528199       -1.2596048987       -0.7045122605
 H          3.0587168455       -0.0150392162        1.0476599496
 H          1.1134611083       -0.0181449059        2.4716363114
 H         -1.5910311808       -0.0136762914        2.0913139776
 H         -2.5036771900       -2.1500886237       -0.5035607815
 H         -4.0124806004       -1.2981549599       -0.8209389348
 H         -3.3250714486       -1.2799093533        0.7984391550
 H         -2.5029457723        2.1579234052       -0.4810128000
 H         -3.3208266608        1.2745799287        0.8142950515
 H         -4.0127183471        1.3093598177       -0.8029148611
 H          4.0367496597        1.3145835220       -0.7734356881
 H          2.6293397759        2.1533905556       -0.1284964083
 H          2.5236315726        1.2918439560       -1.6705009992
 H          2.6209165253       -2.1533312236       -0.1820227511
 H          4.0337805653       -1.3047282258       -0.8015916053
 H          2.5238188313       -1.2532711425       -1.7025004187
  28
        -33.51045064
 N         -1.0189110129       -0.0230531080        0.0199635759
 C          0.1597830885        0.0566059299       -0.5881655858
 N          1.1308662884       -0.1523184340        0.2962466538
 H          0.2992596940        0.2544802747       -1.6322533449
 C          0.5519724486       -0.3657468221        1.5095503353
 C         -0.7959874033       -0.2866324261        1.3373083976
 C         -2.3212151673        0.1403775321       -0.6121711069
 C          2.5648666668       -0.1076371988        0.0402835729
 C         -3.1310597615       -1.1447158881       -0.4605927389
 H         -2.1344067658        0.3275677378       -1.6735114317
 C         -3.0389117963        1.3433002203       -0.0051401334
 C          3.0117862224        1.3497061764       -0.0652670355
 C          2.9115095959       -0.9003973935       -1.2159776765
 H          3.0461782509       -0.5722141210        0.9055853242
 H          1.1213858927       -0.5579821796        2.3951702569
 H         -1.5835044229       -0.3998644680        2.0518425997
 H         -2.5854322999       -1.9954811266       -0.8612911587
 H         -4.0640839059       -1.0494187461       -1.0078436337
 H         -3.3681151063       -1.3381898490        0.5817863599
 H         -3.9708927293        1.5126224025       -0.5360404411
 H         -2.4300139113        2.2400950311       -0.0892343220
 H         -3.2714174876        1.1730156077        1.0423355626
 H          4.0895255988        1.3899290225       -0.1909857369
 H          2.7519833216        1.9006595001        0.8353254516
 H          2.5487955737        1.8348390030       -0.9207049693
 H          3.9905804436       -0.9996038035       -1.2887542337
 H          2.5626268019       -0.3964958135       -2.1128190397
 H          2.4815166983       -1.8981011889       -1.1758929631
  28
        -33.51043222
 N         -1.1302519185        0.1766617511        0.2820366694
 C         -0.1577929374       -0.0652110807       -0.5922823744
 N          1.0198041594        0.0331443025        0.0154300845
 H         -0.2952694417       -0.2987553602       -1.6292150811
 C          0.7945918769        0.3424815099        1.3223851153
 C         -0.5534939830        0.4306656623        1.4886632413
 C         -2.5644816667        0.1197403636        0.0295452591
 C          2.3232529243       -0.1576714703       -0.6066570137
 C         -2.9094139357        0.8075052865       -1.2872349130
 H         -3.0432134171        0.6557140301        0.8541324680
 C         -3.0175223852       -1.3396775429        0.0439972433
 C          3.0215491826       -1.3587569178        0.0263394220
 C          3.1494438640        1.1189992504       -0.4739350208
 H          2.1396680939       -0.3616561301       -1.6654670085
 H          1.5806297403        0.4788175140        2.0344936103
 H         -1.1244277727        0.6553706027        2.3656084358
 H         -3.9878063783        0.9122410716       -1.3625455314
 H         -2.5722332239        0.2254271293       -2.1401658973
 H         -2.4688677331        1.8002796033       -1.3338657600
 H         -2.7600217507       -1.8160339118        0.9868002798
 H         -2.5556083469       -1.8947647054       -0.7685295878
 H         -4.0953336308       -1.3860384734       -0.0788598368
 H          2.4045677394       -2.2505709663       -0.0515838879
 H          3.2430444478       -1.1750121380        1.0739640973
 H          3.9579688713       -1.5453316777       -0.4907633916
 H          3.3936380742        1.3223319091        0.5648768398
 H          2.6127646647        1.9714940952       -0.8829613092
 H          4.0789492027        1.0054555502       -1.0237288594
  28
        -33.51040756
 N         -1.0901877364        0.2234799218       -0.3457840717
 C         -0.0093042294       -0.2487598499        0.2691320679
 N          1.0780036624        0.1324291565       -0.3936767399
 H         -0.0152056570       -0.8468562089        1.1573824331
 C          0.6801346246        0.8768541196       -1.4615576383
 C         -0.6801391488        0.9316082703       -1.4326483784
 C         -2.4730929131        0.0057168740        0.0594067967
 C          2.4633482041       -0.1284993415       -0.0231445810
 C         -2.8153812488       -1.4780561778       -0.0556222834
 H         -3.0921566448        0.5748675099       -0.6395649645
 C         -2.6929414631        0.5350638042        1.4742278129
 C          2.6254115679       -1.5480626023        0.5094361449
 C          2.9100639498        0.9153786965        0.9999932737
 H          3.0528990980       -0.0148447610       -0.9375468949
 H          1.3714919863        1.3057164222       -2.1568638409
 H         -1.3634017237        1.4156109524       -2.0991837449
 H         -2.2411598109       -2.0685823147        0.6529051949
 H         -2.6186821360       -1.8429686801       -1.0607580209
 H         -3.8701254209       -1.6226282994        0.1583024712
 H         -3.7499915631        0.4823960153        1.7174853651
 H         -2.3777121835        1.5726985959        1.5517333358
 H         -2.1491015091       -0.0562007663        2.2054473244
 H          3.6836680087       -1.7786375932        0.5907513214
 H          2.1728863694       -2.2706091575       -0.1651161701
 H          2.1871474625       -1.6542830214        1.4977234774
 H          2.7912148826        1.9214715108        0.6054276401
 H          3.9583178868        0.7636131778        1.2388009739
 H          2.3327132738        0.8267364837        1.9168231967
  28
        -33.51037024
 N         -1.0827913344        0.0652101914       -0.4021296017
 C          0.0002412434        0.0062077501        0.3670255880
 N          1.0832378531       -0.0760176388       -0.4001459560
 H          0.0004794008        0.0224392266        1.4377030983
 C          0.6795896647       -0.0674703273       -1.6998824533
 C         -0.6792979782        0.0171942171       -1.7010755872
 C         -2.4679360960        0.1080598639        0.0494051971
 C          2.4682933999       -0.1046216685        0.0528418513
 C         -2.9101365225       -1.3004994171        0.4439366097
 H         -3.0596541839        0.4473785628       -0.8056128938
 C         -2.6302212073        1.0961990131        1.1998603580
 C          2.6322865905       -1.0646363371        1.2266724701
 C          2.9068781520        1.3141036495        0.4135129686
 H          3.0612173133       -0.4629882932       -0.7935094073
 H          1.3665066667       -0.1219898579       -2.5187441507
 H         -1.3662196174        0.0469366285       -2.5212022023
 H         -3.9585840245       -1.2855547039        0.7258873925
 H         -2.3325100200       -1.6631783914        1.2903483864
 H         -2.7893161317       -1.9916482528       -0.3866299571
 H         -3.6882532596        1.2483170800        1.3923868516
 H         -2.1899438250        2.0583052182        0.9500622225
 H         -2.1776991835        0.7206932043        2.1131821505
 H          3.6905464858       -1.2078199432        1.4247172897
 H          2.1963617692       -2.0341724179        0.9989559207
 H          2.1764050287       -0.6695180955        2.1299765912
 H          2.7840504343        1.9849276993       -0.4332771640
 H          3.9554348278        1.3086373864        0.6954014744
 H          2.3285809554        1.6953613981        1.2512361911
  28
        -33.51032192
 N         -1.0847040307       -0.1451800270       -0.3707557034
 C         -0.0033058771        0.0822190798        0.3690330802
 N          1.0792694792        0.0213896135       -0.4004526385
 H         -0.0039255355        0.2835255888        1.4206609795
 C          0.6771493226       -0.2561907480       -1.6711338967
 C         -0.6803153478       -0.3562819655       -1.6532335330
 C         -2.4706602582       -0.1066164782        0.0786210354
 C          2.4666249950        0.1474953270        0.0283961472
 C         -2.6235794349       -0.8078691819        1.4242397271
 H         -3.0537735701       -0.6411798533       -0.6767921112
 C         -2.9352755364        1.3479889611        0.1407585795
 C          2.9636630722       -1.2154058725        0.5099770990
 C          2.6090495844        1.2141157417        1.1084072021
 H          3.0357460894        0.4486608655       -0.8560806371
 H          1.3642152411       -0.3593102327       -2.4851736870
 H         -1.3661065971       -0.5602585342       -2.4491041551
 H         -2.1668102715       -1.7941382331        1.4022793519
 H         -3.6802043006       -0.9296270208        1.6441510750
 H         -2.1828728124       -0.2255073214        2.2283555795
 H         -3.9841884574        1.3820493165        0.4193059671
 H         -2.8222215676        1.8327964449       -0.8258603478
 H         -2.3653025905        1.9030038086        0.8815757640
 H          4.0135597912       -1.1446616983        0.7776207038
 H          2.8592936405       -1.9648952436       -0.2707030953
 H          2.4070318541       -1.5398472892        1.3857070633
 H          2.1253207649        2.1399803131        0.8073534168
 H          3.6636092392        1.4203377236        1.2668303664
 H          2.1922249141        0.8800296159        2.0543631753
  28
        -33.51026767
 N         -1.0825992594       -0.1292436568       -0.3677391608
 C         -0.0015781130        0.0439492131        0.3870526944
 N          1.0794404070        0.0612055632       -0.3868609067
 H         -0.0020212278        0.1526338360        1.4521903604
 C          0.6765367425       -0.1087027487       -1.6763854682
 C         -0.6795447696       -0.2234893840       -1.6647989781
 C         -2.4702728107       -0.1383871881        0.0781604783
 C          2.4680693085        0.1602687935        0.0451510955
 C         -2.6065265718       -0.8383380332        1.4256451347
 H         -3.0325935273       -0.6942549149       -0.6779434066
 C         -2.9833413869        1.3004065971        0.1337619113
 C          2.9977664310       -1.2436863457        0.3368968023
 C          2.6008010344        1.0754653334        1.2568967543
 H          3.0220158478        0.5885557006       -0.7955929320
 H          1.3628034248       -0.1334937389       -2.4972048519
 H         -1.3656339757       -0.3647096615       -2.4739174632
 H         -2.1091867489       -1.8049471377        1.4142868773
 H         -3.6594524599       -1.0031495757        1.6352537530
 H         -2.2003847821       -0.2326058189        2.2308436814
 H         -4.0324263552        1.3009142859        0.4135961259
 H         -2.8872217215        1.7849035276       -0.8347659081
 H         -2.4307684289        1.8767417855        0.8716105385
 H          2.9037995405       -1.8840965799       -0.5366000451
 H          2.4542157974       -1.6945701934        1.1634786014
 H          4.0477457384       -1.1863515381        0.6073506244
 H          2.0932753155        2.0218798212        1.0879572822
 H          3.6526195840        1.2833341823        1.4308233648
 H          2.2043527024        0.6071860248        2.1534845594
  28
        -33.50750097
 N         -1.1001783326       -0.2433143066        0.0394632296
 C         -0.0703069733        0.1281359947       -0.7182358567
 N          1.0606991857       -0.0012220996       -0.0333264763
 H         -0.1298526458        0.4778816861       -1.7290637548
 C          0.7489899678       -0.4741347411        1.2038736873
 C         -0.6027775202       -0.6260627154        1.2495639561
 C         -2.5042209630       -0.2631016152       -0.3731853345
 C          2.3985880780        0.2963635065       -0.5267693710
 C         -3.4183236594       -0.1975507616        0.8462747408
 H         -2.6766149254       -1.2112345689       -0.8971567093
 C         -2.7879421665        0.8955948921       -1.3269705183
 C          3.2106661183       -0.9943157086       -0.6052971670
 C          3.0633388732        1.3352792241        0.3721881446
 H          2.2784053665        0.7111156005       -1.5317429943
 H          1.4814747781       -0.6677283033        1.9585306132
 H         -1.2129885131       -0.9739214596        2.0548576688
 H         -3.3435236823       -1.0931652775        1.4561209244
 H         -4.4487078267       -0.1180804627        0.5121417820
 H         -3.1906319362        0.6755296075        1.4527664450
 H         -2.2830158948        0.7720122539       -2.2802827885
 H         -2.4907787672        1.8412197867       -0.8803807122
 H         -3.8543020297        0.9372441296       -1.5283577586
 H          4.1839183593       -0.7831349258       -1.0379727989
 H          2.7102191830       -1.7288324222       -1.2315109550
 H          3.3626807305       -1.4202200844        0.3826389757
 H          2.4415035521        2.2223464262        0.4638970577
 H          4.0149037920        1.6293207160       -0.0605494838
 H          3.2529681428        0.9337835074        1.3635722728
