  28
        -33.51055655
 N         -1.0859246798       -0.0000185999       -0.0803289009
 C          0.0000177372        0.0003528326       -0.8463151627
 N          1.0859740019       -0.0003017485       -0.0803625413
 H         -0.0000070898        0.0011682850       -1.9190094319
 C          0.6804729118       -0.0012087482        1.2199881869
 C         -0.6803778728       -0.0010044504        1.2200142430
 C         -2.4656677026        0.0006827281       -0.5477165822
 C          2.4656503486        0.0000147166       -0.5476806359
 C         -3.1711179733       -1.2653310329       -0.0681461460
 H         -2.4271683324        0.0021727965       -1.6408657403
 C         -3.1708665805        1.2654687736       -0.0645569782
 C          3.1715345767       -1.2649205403       -0.0658908771
 C          3.1703107667        1.2660488943       -0.0668529791
 H          2.4271780460       -0.0004456309       -1.6408225515
 H          1.3624302975       -0.0017990104        2.0437702526
 H         -1.3621298626       -0.0015481140        2.0439960508
 H         -2.6337693864       -2.1535713850       -0.3912615096
 H         -4.1722160524       -1.3009718283       -0.4872957067
 H         -3.2562417739       -1.2801146184        1.0147753575
 H         -4.1718152769        1.3025556530       -0.4838918797
 H         -2.6331690108        2.1544513214       -0.3849856356
 H         -3.2563632263        1.2771515004        1.0184061203
 H          4.1704005630       -1.3039518439       -0.4899750811
 H          2.6312809479       -2.1539024541       -0.3820197872
 H          3.2622718344       -1.2747824971        1.0166321700
 H          2.6293033872        2.1541317986       -0.3841075779
 H          4.1692515709        1.3056377892       -0.4906491625
 H          3.2605997579        1.2770405904        1.0156618128
