  20
        -24.78164260
 N         -1.1335592057       -0.3684769293       -0.0139061153
 C         -0.0000179533       -1.0638633059        0.0869710983
 N          1.1335454878       -0.3684864461       -0.0137566864
 C         -2.3865213797       -1.0784690087        0.0268836716
 C          2.3864787901       -1.0785221070        0.0267893071
 H         -2.9429136454       -0.9347037344       -0.9049532066
 H         -3.0071150864       -0.7256469677        0.8567898733
 H         -2.1780832033       -2.1370646146        0.1596354830
 H          2.1779868737       -2.1370196341        0.1601197787
 H          3.0076115300       -0.7252940471        0.8561740293
 H          2.9422729890       -0.9354154696       -0.9054855115
 C         -1.2380580698        1.0689774307       -0.2200273323
 C          1.2381183345        1.0689621825       -0.2199304982
 C          0.0000175813        1.7491156681        0.3522084323
 H         -2.1394105206        1.4356736285        0.2820019466
 H         -1.3325602006        1.2900552384       -1.2932720416
 H         -0.0000100765        1.6327956750        1.4386123631
 H          0.0000717172        2.8133851494        0.1154127746
 H          1.3327271917        1.2900616213       -1.2931716519
 H          2.1394068688        1.4356698176        0.2822254342
