16
	Energy:      44.3693521
N         -0.92799        4.25397        2.73007
C          0.15267        3.30882        2.77506
N          1.22789        3.91598        2.04140
C          0.77304        5.17999        1.58678
C         -0.48381        5.37519        1.98919
C         -2.22893        4.08902        3.33120
C          2.52611        3.32388        1.82215
H         -2.29443        3.10929        3.85008
H         -3.01143        4.13260        2.54497
H         -2.40427        4.89937        4.06940
H          3.01600        3.13075        2.79930
H          3.17537        3.99667        1.22515
H          2.40931        2.36458        1.27607
H          0.15736        2.31617        3.27248
Cl         1.72557        6.31561        0.63618
Cl        -1.45823        6.80313        1.65905
