  33
        -39.59675540
 C          0.6752687951        1.5311471315        0.0003611231
 C         -0.6752628220        1.5311446392        0.0002024353
 N          1.0678747428        0.2142620642        0.0009575539
 N         -1.0678691887        0.2142613512        0.0005901820
 C          0.0000028955       -0.6243543526        0.0010427766
 H          1.3596507601        2.3549493240        0.0001146115
 H         -1.3596259664        2.3549628780       -0.0001643809
 C          2.4526005849       -0.2219435250       -0.0000616958
 C         -2.4525953824       -0.2219497398       -0.0000531554
 C          3.1481221395        0.3074501835       -1.2603909521
 C         -3.1507093517        0.3095354382        1.2579296658
 C         -3.1494235261        0.3096878498       -1.2587006230
 C          2.4906484348       -1.7497445380        0.0025581166
 H          2.6259571622       -0.0432455770       -2.1480760256
 H         -4.1779705134       -0.0438917129        1.2928034593
 H         -2.6282844285       -0.0395154242       -2.1475752777
 H          3.5214353506       -2.0945918569        0.0015733916
 H          3.1599519607        1.3949035571       -1.2744935191
 H         -3.1613198843        1.3970138254        1.2709509975
 H         -4.1762189946       -0.0449004029       -1.2954232537
 H          1.9807340077       -2.1374543895       -0.8738885694
 H          4.1748603497       -0.0472384699       -1.2976615380
 H         -2.6313350779       -0.0409071719        2.1473429881
 H         -3.1612719324        1.3971600059       -1.2709612461
 H          1.9835248142       -2.1343778948        0.8819847272
 C          3.1519945380        0.3117574951        1.2562635246
 C         -2.4906493515       -1.7497530362       -0.0001815391
 H          4.1791717986       -0.0419479413        1.2908260167
 H         -1.9820071619       -2.1359906573        0.8776538973
 H          3.1630354096        1.3992469144        1.2672167742
 H         -1.9822654551       -2.1358548250       -0.8782312720
 H         -3.5214351120       -2.0945953571       -0.0000764388
 H          2.6333720262       -0.0368096758        2.1468541224
