42
	Energy:     112.9361939
N         -1.69549       -0.53436        1.05763
C         -0.76371       -1.34714        0.30808
N          0.50128       -0.63078        0.34339
H         -1.11809       -1.43021       -0.74222
C          0.28637        0.54322        1.11179
C         -1.00997        0.59445        1.53379
C         -3.08096       -0.83960        1.28184
C          1.72328       -1.07594       -0.30996
C         -3.49483       -2.16739        1.62649
C         -4.08921        0.17208        1.16269
C          1.92291       -2.47129       -0.62064
C          2.77067       -0.16275       -0.69847
H          0.99424        1.29328        1.39131
H         -1.43067        1.37008        2.16068
C         -4.85497       -2.44187        1.83696
C         -2.56137       -3.33422        1.84708
C         -5.43412       -0.15184        1.39909
C          3.09702       -2.89187       -1.26736
C          4.07624       -1.98927       -1.63464
C          3.91534       -0.64465       -1.35895
C         -5.81223       -1.44434        1.72973
H         -6.20475        0.60479        1.30620
C          2.73479        1.32936       -0.48408
C          0.94663       -3.56937       -0.26291
H          3.26200       -3.93752       -1.49846
H          4.97011       -2.33551       -2.13806
H          4.70716        0.02846       -1.66577
H         -6.85581       -1.67542        1.90147
H         -5.17725       -3.44143        2.10530
C         -3.83766        1.59686        0.72789
H         -1.49040       -3.09425        1.79837
H         -2.78270       -4.13628        1.11158
H         -2.72243       -3.73686        2.86986
H         -2.80706        1.81421        0.40923
H         -4.12416        2.29563        1.54203
H         -4.46328        1.81654       -0.16353
H          1.32763       -4.57844       -0.52963
H         -0.00220       -3.45759       -0.82165
H          0.76755       -3.56981        0.83237
H          3.58431        1.84734       -0.97889
H          2.86409        1.56536        0.58754
H          1.80417        1.75895       -0.91055
