  42
        -56.95898166
 N         -1.0824893641       -0.0000200543        0.4798471642
 C          0.0002291019        0.0000452496       -0.2915470786
 N          1.0825816633        0.0036329696        0.4803651571
 H          0.0005482762       -0.0021538029       -1.3642422089
 C          0.6803178712        0.0057007552        1.7832158401
 C         -0.6808103080        0.0037008042        1.7828793404
 C         -2.4378987570       -0.0055674550        0.0315088490
 C          2.4380276935        0.0061038812        0.0320597949
 C         -3.0582214505       -1.2317364126       -0.2077903271
 C         -3.0922149625        1.2149823540       -0.1354796895
 C          3.0899606612       -1.2159204869       -0.1334714066
 C          3.0606211851        1.2307446892       -0.2091080587
 H          1.3774471759        0.0098171976        2.5956898750
 H         -1.3782855289        0.0030569500        2.5950680274
 C         -4.3803048850       -1.2147939811       -0.6308846453
 C         -2.3140073705       -2.5169554938       -0.0169197013
 C         -4.4136139446        1.1863235039       -0.5600073947
 C          4.4112079280       -1.1903006263       -0.5586916245
 C          5.0505981608        0.0115983174       -0.8054959868
 C          4.3824941135        1.2107528271       -0.6327609818
 C         -5.0508106858       -0.0171381547       -0.8048488982
 H         -4.9456667667        2.1147298322       -0.6978087793
 C          2.3187898368        2.5175897738       -0.0199088985
 C          2.3789171104       -2.5057383292        0.1359244590
 H          4.9414021509       -2.1199323923       -0.6954237527
 H          6.0784342328        0.0136497196       -1.1341752281
 H          4.8903721373        2.1426774505       -0.8266075325
 H         -6.0788003450       -0.0217669221       -1.1330250989
 H         -4.8866270673       -2.1478733794       -0.8232532423
 C         -2.3833759853        2.5065004569        0.1315989733
 H         -1.8914865494       -2.5800704448        0.9844403418
 H         -1.5012633019       -2.6005144816       -0.7373757945
 H         -2.9806280286       -3.3620150407       -0.1612425363
 H         -2.0116015824        2.5435421177        1.1542773785
 H         -3.0590465237        3.3436558062       -0.0165450975
 H         -1.5375604054        2.6288833567       -0.5435900795
 H          1.5337155922       -2.6285186861       -0.5399179621
 H          2.0058997738       -2.5398457619        1.1582371781
 H          3.0534427430       -3.3442504868       -0.0095000554
 H          1.5060709333        2.6015298827       -0.7403899368
 H          2.9869384763        3.3612261191       -0.1655756959
 H          1.8965403044        2.5829229390        0.9814347509
  42
        -56.95889964
 N         -1.0834521432        0.2300140283        0.4244750288
 C          0.0004024984       -0.1384361776       -0.2517312098
 N          1.0821325670        0.2365161659        0.4243127157
 H          0.0018657589       -0.6551620841       -1.1915892383
 C          0.6780456818        0.8625143658        1.5664561586
 C         -0.6829683340        0.8594568331        1.5659924811
 C         -2.4371140859        0.0089087246        0.0301527667
 C          2.4370236240        0.0238924150        0.0295502181
 C         -3.0012603726       -1.2490953393        0.2421771144
 C         -3.1465295671        1.0651370143       -0.5426041550
 C          3.0019756830        0.8771826705       -0.9183546385
 C          3.1467511451       -1.0241724143        0.6167410627
 H          1.3733880508        1.2626463380        2.2751796069
 H         -1.3805689984        1.2425295705        2.2818905547
 C         -4.3227522057       -1.4370998493       -0.1397590151
 C         -2.2041550147       -2.3565564781        0.8596736018
 C         -4.4651677842        0.8337230947       -0.9095015748
 C          4.3246015906        0.6572028827       -1.2786751557
 C          5.0494117266       -0.3751478064       -0.7105561998
 C          4.4665203664       -1.2082414231        0.2277628506
 C         -5.0472530779       -0.4053905302       -0.7094438106
 H         -5.0383167192        1.6317825398       -1.3551683660
 C          2.4980683238       -1.9204411091        1.6256632891
 C          2.2045689527        1.9903402756       -1.5251263144
 H          4.7884194140        1.3023151699       -2.0085436770
 H          6.0768822458       -0.5314694640       -1.0009450411
 H          5.0399116700       -2.0110063073        0.6645773771
 H         -6.0738588111       -0.5680690835       -0.9993976037
 H         -4.7859526380       -2.3993944084        0.0133431436
 C         -2.4986697350        2.3977465308       -0.7580889065
 H         -1.7059227577       -2.0238487381        1.7684930645
 H         -1.4477402484       -2.7182886352        0.1640644604
 H         -2.8535162559       -3.1904425317        1.1098651110
 H         -2.2344329461        2.8597383952        0.1919130796
 H         -3.1777225781        3.0647474879       -1.2809652308
 H         -1.5915229244        2.2979986208       -1.3520664529
 H          1.4507074140        1.5952572329       -2.2051886958
 H          2.8543431774        2.6492941684       -2.0936380096
 H          1.7032211104        2.5788492119       -0.7588492463
 H          3.1772546785       -2.7188299842        1.9097208703
 H          1.5917400547       -2.3691348054        1.2220455860
 H          2.2322910234       -1.3658976404        2.5243323549
  42
        -56.95881228
 N         -1.0830153852        0.0070231741        0.4855489429
 C         -0.0001294793       -0.0001487588       -0.2860214266
 N          1.0828607250       -0.0064162395        0.4854356675
 H         -0.0002054936       -0.0008236410       -1.3584761062
 C          0.6804388129       -0.0037669375        1.7884565049
 C         -0.6804760549        0.0059105750        1.7885960238
 C         -2.4368758903        0.0151810669        0.0347709414
 C          2.4367631783       -0.0151459825        0.0348047013
 C         -2.9972763579       -1.1742755122       -0.4313731038
 C         -3.1508056234        1.2130725919        0.0874910259
 C          3.1512333029       -1.2125788486        0.0908593802
 C          2.9967747236        1.1733336387       -0.4342742988
 H          1.3766216234        0.0015037247        2.6015274308
 H         -1.3765829876        0.0016855286        2.6017262436
 C         -4.3189921805       -1.1432745364       -0.8553608022
 C         -2.1980943160       -2.4404172272       -0.4722124428
 C         -4.4695796798        1.1988589286       -0.3456531699
 C          4.4700918549       -1.1989250942       -0.3420557241
 C          5.0479261133       -0.0327895752       -0.8114940526
 C          4.3185953327        1.1417852250       -0.8579141315
 C         -5.0478168877        0.0317441824       -0.8121492288
 H         -5.0457758074        2.1105497045       -0.3167388381
 C          2.1972472252        2.4391513129       -0.4784277618
 C          2.5097942323       -2.4685246858        0.5941865035
 H          5.0466770580       -2.1102904715       -0.3106016446
 H          6.0746935812       -0.0394739156       -1.1433730649
 H          4.7782611968        2.0464371952       -1.2243922232
 H         -6.0745551899        0.0379802839       -1.1441303626
 H         -4.7790045793       -2.0487007751       -1.2195294847
 C         -2.5087415812        2.4700740148        0.5873827438
 H         -1.4587519196       -2.4017400378       -1.2714306207
 H         -2.8502672104       -3.2877789642       -0.6629571667
 H         -1.6799617051       -2.6104062647        0.4697991008
 H         -1.5842359044        2.6764124000        0.0506042548
 H         -2.2765049655        2.3922205150        1.6484193395
 H         -3.1793686744        3.3132881887        0.4504978593
 H          3.1798269005       -3.3121958699        0.4571811684
 H          1.5839593297       -2.6754201497        0.0599397912
 H          2.2801175669       -2.3888403494        1.6556541752
 H          2.8495745855        3.2864626134       -0.6688861031
 H          1.6770224689        2.6102263310        0.4622212609
 H          1.4596951048        2.3992357372       -1.2792378199
  42
        -56.95822992
 N         -1.0862612433       -0.0228878121        0.4845080486
 C         -0.0037719103       -0.0026816336       -0.2868881165
 N          1.0786406488        0.0094616995        0.4854672967
 H         -0.0025245103        0.0078980224       -1.3594783016
 C          0.6765175806       -0.0047160877        1.7885396682
 C         -0.6844868616       -0.0254683068        1.7877665888
 C         -2.4407664281       -0.0275231494        0.0336339222
 C          2.4333283826        0.0306642549        0.0348401182
 C         -3.1008481275       -1.2499399313       -0.0909109450
 C         -3.0535294302        1.1924165388       -0.2527968023
 C          3.0534629402       -1.1901670129       -0.2453446290
 C          3.0904549308        1.2514497238       -0.0984173955
 H          1.3741769893        0.0047148094        2.6003480216
 H         -1.3818351571       -0.0364065243        2.5999364565
 C         -4.4204081435       -1.2299592521       -0.5216171552
 C         -2.3994020359       -2.5343291359        0.2252215940
 C         -4.3739699149        1.1667409916       -0.6804923000
 C          4.3724027898       -1.1658152783       -0.6719775546
 C          5.0468196874        0.0355714215       -0.8132482959
 C          4.4128785894        1.2294619235       -0.5301999358
 C         -5.0500519227       -0.0330328865       -0.8134670339
 H         -4.8745983451        2.0948166578       -0.9086239603
 C          2.4332275586        2.5621465535        0.2066519285
 C          2.3078586114       -2.4796751828       -0.0898936911
 H          4.8752018348       -2.0942534447       -0.8937717464
 H          6.0735037758        0.0378087711       -1.1454869134
 H          4.9424270393        2.1630006369       -0.6410995729
 H         -6.0765822155       -0.0351105816       -1.1461784497
 H         -4.9567228337       -2.1600314286       -0.6278348520
 C         -2.3049746948        2.4807224608       -0.1025088718
 H         -2.0486600901       -2.5438889601        1.2559431035
 H         -1.5397869067       -2.6757326201       -0.4285241797
 H         -3.0731967693       -3.3746210327        0.0866044588
 H         -1.4889565663        2.5388784599       -0.8218622515
 H         -1.8877165756        2.5754147115        0.8988574680
 H         -2.9684128762        3.3226278284       -0.2769075072
 H          2.9743094485       -3.3205300376       -0.2580292107
 H          1.4951174250       -2.5434936806       -0.8124042162
 H          1.8860807140       -2.5709596445        0.9096565906
 H          2.9460222351        3.0440683446        1.0377369070
 H          1.3840507046        2.4581248563        0.4646273613
 H          2.5166690152        3.2243519793       -0.6530791918
