  33
        -39.60109971
 N         -1.0622141554       -0.0400088782        0.0866510951
 C          0.0001156096       -0.8794170543       -0.0003528417
 N          1.0622958872       -0.0398234300       -0.0870607348
 C          0.6784084697        1.2877070037       -0.0503557577
 C         -0.6784885153        1.2875695714        0.0506564253
 C         -2.4238111693       -0.5208506339        0.1440017378
 C          2.4239822329       -0.5204988732       -0.1436732702
 C         -2.8600307489       -0.9952528664       -1.2439681583
 H         -3.0679803394        0.3074994594        0.4600900660
 C         -2.5275852312       -1.6531327842        1.1631606084
 H          3.0684611855        0.3082987987       -0.4579143221
 C          2.5290648130       -1.6514327467       -1.1641839012
 C          2.8584828353       -0.9966881057        1.2442252671
 C          1.6383895956        2.4228781087       -0.1176474203
 C         -1.6385681542        2.4226343349        0.1184708997
 H         -1.8543433728       -2.4551701116        0.8754879469
 H         -3.5460853527       -2.0299248138        1.2063441534
 H         -2.2402622356       -1.2997848889        2.1506799808
 H         -2.7850020244       -0.1839928049       -1.9654355552
 H         -3.8879860538       -1.3475905219       -1.2201973617
 H         -2.2114102863       -1.8058010782       -1.5661752941
 H          3.8866167562       -1.3485598010        1.2214485683
 H          2.2097103130       -1.8079471356        1.5643333122
 H          2.7820413814       -0.1864837144        1.9667341524
 H          2.2430212112       -1.2968166331       -2.1516192912
 H          1.8555185590       -2.4538869555       -0.8784188554
 H          3.5476403137       -2.0281187492       -1.2065424078
 H         -2.3644982685        2.3702748760       -0.6939346772
 H         -1.1038535199        3.3654820205        0.0373222433
 H         -2.1828372490        2.4200461925        1.0644059621
 H          2.1818061449        2.4214535546       -1.0640844029
 H          2.3650406631        2.3695448638        0.6940470013
 H          1.1037461592        3.3656297050       -0.0348538225
  33
        -39.60107372
 N         -1.0589671410       -0.0342521427        0.1399874226
 C          0.0108932709       -0.8676377561        0.1775176652
 N          1.0709847914       -0.0294297467        0.0565719250
 C          0.6776379621        1.2894833439       -0.0712289054
 C         -0.6820076671        1.2863817403       -0.0187805065
 C         -2.4207746982       -0.5151087802        0.1912791174
 C          2.4329749072       -0.5111351973        0.0162503188
 C         -2.8291108744       -1.0528498785       -1.1823923707
 H         -3.0719939196        0.3261131399        0.4558592820
 C         -2.5458943956       -1.5995493350        1.2583560515
 H          3.1047997508        0.3463636359        0.1344905158
 C          2.7019962147       -1.1777045325       -1.3344737328
 C          2.6660547633       -1.4921428086        1.1631730438
 C          1.6319255274        2.4206716338       -0.2274947518
 C         -1.6508070909        2.4132567850       -0.0978325136
 H         -1.8669315220       -2.4134977745        1.0228121627
 H         -3.5654504353       -1.9740224391        1.2968678646
 H         -2.2789129998       -1.2012853978        2.2342409382
 H         -2.7357821889       -0.2771213678       -1.9399090682
 H         -3.8587247585       -1.4006215276       -1.1640385283
 H         -2.1779649683       -1.8802214843       -1.4528185534
 H          3.6858217061       -1.8672512814        1.1382704679
 H          1.9706935259       -2.3211829084        1.0708991445
 H          2.4938235395       -1.0031168442        2.1191323257
 H          2.5384473434       -0.4723851576       -2.1468969953
 H          2.0220437940       -2.0160454986       -1.4617298978
 H          3.7265162964       -1.5372189303       -1.3845204081
 H         -2.2238949402        2.5028888598        0.8265943949
 H         -2.3513982217        2.2706859712       -0.9215276557
 H         -1.1197255890        3.3479219362       -0.2588776221
 H          1.0852853859        3.3528551355       -0.3445737794
 H          2.2632901561        2.2814329791       -1.1060739367
 H          2.2778034336        2.5128100809        0.6473049411
  33
        -39.60106242
 N         -1.0660953322       -0.0254988180       -0.0072445250
 C         -0.0014279275       -0.8642860843       -0.0668546483
 N          1.0644823107       -0.0248990717       -0.0684025667
 C          0.6806115282        1.3012030010       -0.0037764005
 C         -0.6797607334        1.3007893722        0.0358817903
 C         -2.4246134751       -0.5168011514        0.0350274323
 C          2.4229321905       -0.5164586456       -0.1105339260
 C         -2.6715087155       -1.4433706259       -1.1545387615
 H         -3.1037050002        0.3402563910       -0.0288570173
 C         -2.6627716754       -1.2501827433        1.3558765009
 H          3.0987405259        0.3422996671       -0.1846784709
 C          2.6068422839       -1.4084043066       -1.3376230281
 C          2.7280354713       -1.2875608194        1.1743604125
 C          1.6427397914        2.4365261090        0.0123743376
 C         -1.6399694875        2.4355261225        0.1083377751
 H         -2.4950728557       -0.5813776405        2.1976701782
 H         -1.9688090212       -2.0830212109        1.4317452437
 H         -3.6816552021       -1.6254712190        1.4045196408
 H         -3.6863957422       -1.8313659565       -1.1287097846
 H         -1.9663828414       -2.2687273193       -1.1150677157
 H         -2.5238539546       -0.9069483531       -2.0892339150
 H          3.7471841214       -1.6649280597        1.1588981791
 H          2.0367469174       -2.1213305267        1.2624965179
 H          2.6060413541       -0.6428626945        2.0423640649
 H          1.9049889884       -2.2358521080       -1.2844907153
 H          3.6216519201       -1.7955508734       -1.3766654423
 H          2.4100261684       -0.8458083561       -2.2476237243
 H         -1.0981365630        3.3769039297        0.1490509144
 H         -2.2656975199        2.3628393839        0.9990583490
 H         -2.2907025038        2.4549563764       -0.7673877365
 H          2.3175739644        2.3659207843        0.8667159093
 H          1.1034989834        3.3777390135        0.0817308506
 H          2.2431554982        2.4544873182       -0.8986169182
  33
        -39.59816034
 N         -0.9677441395       -0.2917009948        0.1313279466
 C          0.1796155160       -1.0044327937        0.2737477490
 N          1.1590991924       -0.0845144633        0.0911050827
 C          0.6422901467        1.1686533475       -0.1700957629
 C         -0.7134980212        1.0408629482       -0.1438995643
 C         -2.2370845481       -0.9759309039        0.2442632955
 C          2.5624464543       -0.4289845579        0.1133499676
 C         -3.1645922367       -0.3443795465        1.2823175228
 H         -1.9587683630       -1.9785002287        0.5932552513
 C         -2.9261127244       -1.1255964133       -1.1143069046
 H          3.1415445313        0.4954146157        0.2203551114
 C          2.9447432025       -1.1121913369       -1.2016228995
 C          2.8506465463       -1.3407587756        1.3034741173
 C          1.4905222184        2.3679534808       -0.4109933660
 C         -1.7406181526        2.1028883076       -0.3305574975
 H         -3.2685018692       -0.1679079674       -1.4979986765
 H         -3.7872141140       -1.7819751255       -1.0178342118
 H         -2.2351229060       -1.5603021760       -1.8327843899
 H         -3.6096414812        0.5753634487        0.9141590881
 H         -2.6130091758       -0.1292329365        2.1948119025
 H         -3.9671668366       -1.0380635558        1.5204632552
 H          3.9018533220       -1.6161126888        1.3213676873
 H          2.2403807116       -2.2354318601        1.2243116334
 H          2.6022820281       -0.8363661755        2.2342408527
 H          2.3632850511       -2.0235919093       -1.3148100521
 H          4.0029145248       -1.3604672792       -1.2077598477
 H          2.7338807421       -0.4595244917       -2.0465696866
 H         -2.1699107686        2.4061710393        0.6255537354
 H         -2.5467708774        1.7717558339       -0.9814243076
 H         -1.2809601531        2.9783894728       -0.7841948030
 H          2.1788052530        2.2001851813       -1.2403041950
 H          2.0768825942        2.6160186419        0.4754126199
 H          0.8664099512        3.2243478797       -0.6523345487
  33
        -39.59798431
 N         -1.1600808437       -0.0865314489       -0.0733725194
 C         -0.1811806066       -1.0143438096       -0.2127047701
 N          0.9667952632       -0.2994602252       -0.0869388339
 C          0.7129958573        1.0440513189        0.1325760857
 C         -0.6427967597        1.1745673606        0.1456668559
 C         -2.5634445693       -0.4310300235       -0.0973629118
 C          2.2331522583       -0.9907899434       -0.1925592320
 C         -2.8423894723       -1.3720653762       -1.2668896456
 H         -3.1417253686        0.4901851301       -0.2315732357
 C         -2.9557584753       -1.0816817646        1.2309501138
 H          1.9380470159       -2.0318606660       -0.3757717385
 C          3.0379512611       -0.9456134389        1.1076174957
 C          3.0653309848       -0.5135303333       -1.3836082775
 C          1.7421984912        2.1053947032        0.3079398850
 C         -1.4939370440        2.3802112720        0.3409267001
 H         -2.3725209251       -1.9879373729        1.3724173209
 H         -4.0132288338       -1.3330251182        1.2337330279
 H         -2.7545363516       -0.4070066599        2.0607946812
 H         -2.2342215730       -2.2652577958       -1.1596115241
 H         -2.5847337995       -0.8914190677       -2.2076912953
 H         -3.8937737786       -1.6465171302       -1.2877217938
 H          2.4456695500       -0.4649022210       -2.2761473553
 H          3.8773386227       -1.2135940355       -1.5634315405
 H          3.4973926649        0.4665062570       -1.2006232609
 H          3.8380200749       -1.6803945410        1.0654536554
 H          2.3952572303       -1.1812961409        1.9528043772
 H          3.4850726535        0.0319327641        1.2669556798
 H         -2.1778048694        2.2432930153        1.1794559385
 H         -2.0851413215        2.5900602567       -0.5521018936
 H         -0.8732911518        3.2482528968        0.5466506900
 H          1.2529449775        3.0566380235        0.5038439699
 H          2.3507172982        2.2205763098       -0.5885900010
 H          2.4004501146        1.8873497142        1.1477178120
  33
        -39.59528209
 N         -1.0717898373       -0.3763376653       -0.0919011241
 C         -0.0012025810       -1.2036345194       -0.2022264360
 N          1.0710998946       -0.3784731479       -0.0923038676
 C          0.6827787784        0.9361466459        0.0852038018
 C         -0.6807932288        0.9375260353        0.0853866136
 C         -2.4033672251       -0.9387698331       -0.1436458278
 C          2.4014900181       -0.9437482500       -0.1436664329
 C         -3.0813696195       -0.9265022689        1.2285257061
 H         -2.2291408512       -1.9855024025       -0.4236811676
 C         -3.2810649767       -0.2927404880       -1.2155751739
 H          2.2251771780       -1.9900497041       -0.4240201610
 C          3.0786934829       -0.9332077959        1.2289290241
 C          3.2811383234       -0.2994573338       -1.2150218602
 C          1.6013639865        2.1021880441        0.2071046135
 C         -1.5971480947        2.1052085157        0.2081793919
 H         -2.7273367626       -0.2034545335       -2.1475345656
 H         -3.6228617052        0.6927793102       -0.9132663541
 H         -4.1543749917       -0.9157385901       -1.3922217168
 H         -2.4232038265       -1.3748083553        1.9690892698
 H         -4.0022996462       -1.5024950235        1.1867899565
 H         -3.3251732039        0.0836789533        1.5474457823
 H          2.7288427190       -0.2107896206       -2.1478910621
 H          4.1542472907       -0.9233052940       -1.3896663448
 H          3.6232234010        0.6861363352       -0.9133219890
 H          3.9991717874       -1.5099312779        1.1872846606
 H          2.4197060249       -1.3815838547        1.9687345931
 H          3.3230840827        0.0765135919        1.5488771201
 H         -1.0581876864        2.9527172541        0.6264754681
 H         -2.4392470998        1.8872725504        0.8608505881
 H         -1.9834719570        2.4037083515       -0.7676863913
 H          2.4442072650        1.8825858670        0.8582409652
 H          1.0645370391        2.9504442582        0.6266277361
 H          1.9865057942        2.4004058718       -0.7693237426
  33
        -39.59519780
 N         -1.0712463034       -0.3862999415       -0.0241806185
 C          0.0000444934       -1.2198623711        0.0001233681
 N          1.0712740709       -0.3862176929        0.0242321863
 C          0.6815472205        0.9397092291        0.0106195105
 C         -0.6816219493        0.9396557069       -0.0107661079
 C         -2.4024077466       -0.9521623078       -0.0288553396
 C          2.4024680544       -0.9519980988        0.0289811419
 C         -3.1046480491       -0.7694726104        1.3188458536
 H         -2.2247573160       -2.0255380910       -0.1727495768
 C         -3.2602070950       -0.4452929672       -1.1880580308
 H          2.2248852076       -2.0253793555        0.1729639449
 C          3.2601618139       -0.4448910322        1.1881541828
 C          3.1048024628       -0.7693023011       -1.3186677022
 C          1.5979035394        2.1142092644        0.0430003238
 C         -1.5980664837        2.1140860206       -0.0434072878
 H         -4.1307015754       -1.0866305041       -1.3018190704
 H         -2.6899853830       -0.4708916554       -2.1140082932
 H         -3.6067364309        0.5694672079       -1.0157425387
 H         -2.4605611517       -1.1220621481        2.1209689778
 H         -4.0258091593       -1.3464292304        1.3325458114
 H         -3.3521621524        0.2724812956        1.5050713659
 H          3.3523583197        0.2726482880       -1.5048863259
 H          2.4607460585       -1.1218919263       -2.1208128362
 H          4.0259491824       -1.3462847849       -1.3323068565
 H          2.6898801564       -0.4703719350        2.1140711975
 H          3.6067265499        0.5698451595        1.0157157407
 H          4.1306307564       -1.0862305552        1.3020539315
 H         -1.9832589819        2.2838547451       -1.0503039550
 H         -1.0607981473        3.0068384972        0.2682530027
 H         -2.4414804471        1.9805200090        0.6298649143
 H          1.9838483343        2.2836509215        1.0496543468
 H          1.0603064825        3.0070159155       -0.2679185860
 H          2.4408167124        1.9809749058       -0.6309732796
