  21
        -24.95856111
 N         -1.1619647947       -0.3557743072        0.0345444006
 C          0.0000205883       -0.9531026871       -0.0544455915
 N          1.1619831400       -0.3557872346        0.0346539333
 H         -0.0000685987       -2.0258778759       -0.2055859145
 C         -2.4085133826       -1.0780588414       -0.0420251454
 C          2.4085340588       -1.0780154333       -0.0423311246
 H         -2.2305761552       -2.1491421911       -0.0954750890
 H         -2.9692906159       -0.7691974432       -0.9258901170
 H         -3.0123044970       -0.8646754390        0.8409799227
 H          2.2305541324       -2.1491028832       -0.0960726375
 H          3.0124657801       -0.8648686631        0.8407138008
 H          2.9691646304       -0.7689323916       -0.9262215527
 C         -1.2435279607        1.0835092962        0.2177776499
 C          1.2433993959        1.0834490834        0.2183584460
 C          0.0000886511        1.7426572022       -0.3652267140
 H         -1.3385263233        1.3077064676        1.2853836826
 H         -2.1416085748        1.4470914784       -0.2847516819
 H          0.0000616977        2.8066616629       -0.1380107251
 H          0.0003728464        1.6255232719       -1.4502670353
 H          2.1417931595        1.4472442397       -0.2834967314
 H          1.3376914802        1.3073671506        1.2861157148
  21
        -24.95679999
 N         -1.1692762743       -0.3408770555       -0.0190416967
 C         -0.0078457710       -0.9423408446        0.0696825294
 N          1.1577571598       -0.3554176826       -0.0325337237
 H         -0.0183455711       -2.0136390154        0.2322720004
 C         -2.3951219407       -1.1115641855        0.0379667616
 C          2.3996593866       -1.0838321244        0.0569707783
 H         -2.4683347398       -1.7871395743       -0.8153603903
 H         -3.2473301988       -0.4384520586        0.0153372496
 H         -2.4410222125       -1.6989925267        0.9552554759
 H          2.2148352265       -2.1524999395        0.1311581449
 H          2.9633655306       -0.7615193993        0.9341560774
 H          3.0038138673       -0.8910174569       -0.8305172510
 C         -1.2442648702        1.0964313682       -0.2148736448
 C          1.2457047980        1.0795003852       -0.2423704532
 C          0.0117835616        1.7534919550        0.3441238593
 H         -2.1279380151        1.4751288511        0.3016566087
 H         -1.3554347558        1.3129766885       -1.2827402779
 H          0.0231647702        1.6507220893        1.4305629891
 H          0.0150378624        2.8144263966        0.1028517281
 H          1.3288248372        1.2845072365       -1.3147846974
 H          2.1512859516        1.4474317474        0.2431754340
