  21
  -24.9585611100000       5.371105135322789E-002 !mtd7
 N         -1.1619647947       -0.3557743072        0.0345444006
 C          0.0000205883       -0.9531026871       -0.0544455915
 N          1.1619831400       -0.3557872346        0.0346539333
 H         -0.0000685987       -2.0258778759       -0.2055859145
 C         -2.4085133826       -1.0780588414       -0.0420251454
 C          2.4085340588       -1.0780154333       -0.0423311246
 H         -2.2305761552       -2.1491421911       -0.0954750890
 H         -2.9692906159       -0.7691974432       -0.9258901170
 H         -3.0123044970       -0.8646754390        0.8409799227
 H          2.2305541324       -2.1491028832       -0.0960726375
 H          3.0124657801       -0.8648686631        0.8407138008
 H          2.9691646304       -0.7689323916       -0.9262215527
 C         -1.2435279607        1.0835092962        0.2177776499
 C          1.2433993959        1.0834490834        0.2183584460
 C          0.0000886511        1.7426572022       -0.3652267140
 H         -1.3385263233        1.3077064676        1.2853836826
 H         -2.1416085748        1.4470914784       -0.2847516819
 H          0.0000616977        2.8066616629       -0.1380107251
 H          0.0003728464        1.6255232719       -1.4502670353
 H          2.1417931595        1.4472442397       -0.2834967314
 H          1.3376914802        1.3073671506        1.2861157148
  21
  -24.9585611100000       5.371105135322789E-002 !mtd6
 N         -1.1619865483       -0.3557883529        0.0344965018
 C         -0.0000023553       -0.9530898604       -0.0547324423
 N          1.1619670227       -0.3557769222        0.0344613714
 H         -0.0000073078       -2.0258117224       -0.2062529018
 C         -2.4085397894       -1.0780277384       -0.0421684538
 C          2.4085284672       -1.0780532502       -0.0418169541
 H         -2.9701160487       -0.7678823637       -0.9250474314
 H         -3.0115599112       -0.8659463427        0.8416717340
 H         -2.2306344523       -2.1490433744       -0.0972905501
 H          2.9703929122       -0.7679161957       -0.9245349585
 H          2.2305633312       -2.1490466844       -0.0971025274
 H          3.0113686237       -0.8660609479        0.8422440708
 C         -1.2433454227        1.0834437458        0.2183506405
 C          1.2434368608        1.0835130539        0.2178807933
 C         -0.0000750366        1.7426693333       -0.3652662398
 H         -1.3374289897        1.3072300151        1.2861403056
 H         -2.1418098720        1.4473179598       -0.2833039792
 H         -0.0000440820        2.8067386674       -0.1383444988
 H         -0.0002419300        1.6252276386       -1.4502602489
 H          2.1416432240        1.4472290456       -0.2843719277
 H          1.3381133869        1.3076149864        1.2855499580
  21
  -24.9585611000000       5.371048298861335E-002 !mtd9
 N         -1.1619518210       -0.3558037406        0.0350597964
 C          0.0000091027       -0.9531162752       -0.0544032672
 N          1.1619992990       -0.3557907660        0.0344966909
 H         -0.0000081746       -2.0258550995       -0.2057582004
 C         -2.4085135625       -1.0779529055       -0.0425309468
 C          2.4085579559       -1.0780003450       -0.0421405318
 H         -2.2305510820       -2.1489270350       -0.0975875016
 H         -2.9693262822       -0.7676897814       -0.9258950598
 H         -3.0121968063       -0.8658493630        0.8408783524
 H          2.9703427760       -0.7673212727       -0.9247615555
 H          2.2306188640       -2.1489426928       -0.0979433161
 H          3.0114276214       -0.8664010939        0.8419694299
 C         -1.2434411462        1.0835192127        0.2181902262
 C          1.2433783393        1.0834676654        0.2181005668
 C         -0.0000401489        1.7425322029       -0.3653945661
 H         -1.3379027771        1.3077933976        1.2858424084
 H         -2.1417777343        1.4470931003       -0.2839358421
 H         -0.0000130334        2.8066253860       -0.1386690891
 H         -0.0000673382        1.6248645788       -1.4503777709
 H          2.1417460316        1.4473067633       -0.2837550728
 H          1.3376375411        1.3074282901        1.2858463185
  21
  -24.9585611000000       5.371048298861335E-002 !mtd9
 N         -1.1619676131       -0.3558071327        0.0343643190
 C          0.0000057844       -0.9531409875       -0.0545484566
 N          1.1619541357       -0.3557994644        0.0345007937
 H         -0.0000297647       -2.0259093384       -0.2057546238
 C         -2.4085428864       -1.0780477139       -0.0419645870
 C          2.4085391881       -1.0780026589       -0.0421214875
 H         -3.0120880663       -0.8646696301        0.8412546630
 H         -2.2306866032       -2.1491577322       -0.0955099742
 H         -2.9695786740       -0.7690999233       -0.9256750070
 H          2.9703285012       -0.7673630164       -0.9247670856
 H          2.2306001763       -2.1489852827       -0.0979647618
 H          3.0113747180       -0.8664322353        0.8420339285
 C         -1.2433348501        1.0834649180        0.2179964815
 C          1.2433094193        1.0834536452        0.2182945754
 C          0.0000457178        1.7427505734       -0.3653055995
 H         -1.3378631552        1.3074258987        1.2857254025
 H         -2.1415685931        1.4472750557       -0.2841015868
 H         -0.0000174551        2.8067923937       -0.1382197614
 H          0.0001123844        1.6254759533       -1.4503319959
 H          2.1416516100        1.4472985160       -0.2835991203
 H          1.3376855991        1.3073062352        1.2860616731
  21
  -24.9585611000000       5.371048298861335E-002 !mtd13
 N         -1.1619640048       -0.3557897044        0.0344901189
 C          0.0000155816       -0.9531424825       -0.0544385273
 N          1.1619578993       -0.3558195481        0.0348618536
 H         -0.0000050157       -2.0259278244       -0.2055076545
 C         -2.4085368270       -1.0779842501       -0.0422271886
 C          2.4085494313       -1.0779937401       -0.0422785158
 H         -3.0124415816       -0.8643817084        0.8406472190
 H         -2.2306819863       -2.1490854531       -0.0954401485
 H         -2.9691723384       -0.7692365434       -0.9262349724
 H          2.2306943324       -2.1491372230       -0.0954521906
 H          3.0127701092       -0.8643730608        0.8404411904
 H          2.9689103408       -0.7691790745       -0.9265188906
 C         -1.2433621758        1.0834619415        0.2181902162
 C          1.2433648535        1.0834853921        0.2180905494
 C         -0.0000305304        1.7426425332       -0.3653741555
 H         -1.3376904409        1.3074341639        1.2859348452
 H         -2.1416869260        1.4472881381       -0.2837453227
 H         -0.0001202642        2.8067055446       -0.1384420194
 H         -0.0000145472        1.6251919855       -1.4503755904
 H          2.1416645517        1.4471028717       -0.2840394169
 H          1.3378546428        1.3076918689        1.2857491233
  21
  -24.9585610800000       5.370934627742731E-002 !mtd12
 N         -1.1619707567       -0.3558239684        0.0351365338
 C          0.0000043695       -0.9531501280       -0.0540559699
 N          1.1619731845       -0.3558118964        0.0350488143
 H          0.0000040334       -2.0259046687       -0.2053180246
 C         -2.4085678943       -1.0778846597       -0.0428195028
 C          2.4085720811       -1.0778957096       -0.0426080755
 H         -3.0125054370       -0.8658854984        0.8404238593
 H         -2.2307333180       -2.1488683665       -0.0979696047
 H         -2.9691742425       -0.7675215217       -0.9262619939
 H          3.0126006747       -0.8652576823        0.8404031188
 H          2.9690149796       -0.7681082048       -0.9263675220
 H          2.2307292827       -2.1489229016       -0.0970235175
 C         -1.2433304775        1.0835061527        0.2183321858
 C          1.2433556051        1.0835269800        0.2181577559
 C         -0.0000301066        1.7423774806       -0.3656323511
 H         -1.3373690608        1.3078298831        1.2860098584
 H         -2.1417774796        1.4471611928       -0.2834936160
 H         -0.0000348667        2.8065784701       -0.1393853609
 H         -0.0001254209        1.6241933358       -1.4505490945
 H          2.1417287564        1.4471501822       -0.2838304415
 H          1.3375657320        1.3078915200        1.2858082781
  21
  -24.9585610800000       5.370934627742731E-002 !gc
 N         -1.1619752804       -0.3561637373       -0.0308622810
 C          0.0000261665       -0.9525033757        0.0644452538
 N          1.1619370859       -0.3561536752       -0.0313242020
 H          0.0000761566       -2.0235518256        0.2271885223
 C         -2.4085524426       -1.0775105112        0.0537135126
 C          2.4084813688       -1.0774924283        0.0539325707
 H         -3.0121772937       -0.8741254246       -0.8317709039
 H         -2.9694573422       -0.7587005214        0.9339670509
 H         -2.2305775317       -2.1479551594        0.1192674960
 H          3.0131379282       -0.8730768155       -0.8305274727
 H          2.2305861862       -2.1480328490        0.1181216793
 H          2.9683072012       -0.7596643590        0.9352818318
 C         -1.2432467238        1.0810897244       -0.2296888144
 C          1.2433238063        1.0811907969       -0.2296247244
 C         -0.0000089009        1.7464101490        0.3470315964
 H         -2.1416180206        1.4502212150        0.2682324428
 H         -1.3373700741        1.2938271392       -1.2997436572
 H         -0.0000195845        1.6401290915        1.4331943301
 H         -0.0000265364        2.8080975938        0.1091824897
 H          1.3377722708        1.2941988395       -1.2995844270
 H          2.1416200709        1.4500479100        0.2686508546
  21
  -24.9585610700000       5.370877793085570E-002 !md4
 N         -1.1619672761       -0.3558298353        0.0347868076
 C         -0.0000062848       -0.9531397550       -0.0545065036
 N          1.1619487483       -0.3558392466        0.0350295380
 H          0.0000233040       -2.0258348752       -0.2062247381
 C         -2.4085897519       -1.0779154467       -0.0424064567
 C          2.4085795714       -1.0778982770       -0.0423675403
 H         -2.2307195150       -2.1488994692       -0.0987347906
 H         -2.9702755936       -0.7668493505       -0.9249865530
 H         -3.0115497583       -0.8666866588        0.8417338514
 H          3.0130651487       -0.8637796107        0.8399808123
 H          2.9685213604       -0.7694389035       -0.9269272834
 H          2.2308427332       -2.1490451330       -0.0949479553
 C         -1.2432660325        1.0834583047        0.2183000369
 C          1.2433101033        1.0835094541        0.2181500734
 C         -0.0000146315        1.7425038111       -0.3655606967
 H         -1.3373424143        1.3074727723        1.2860339793
 H         -2.1416982971        1.4472593225       -0.2834289253
 H          0.0000376320        2.8066823560       -0.1391639045
 H         -0.0000749090        1.6245287294       -1.4504824281
 H          2.1416564117        1.4471263879       -0.2838818886
 H          1.3376167659        1.3078092449        1.2858048391
  21
  -24.9585610700000       5.370877793085570E-002 !gc
 N         -1.1619666442       -0.3561578731       -0.0307289067
 C          0.0000327901       -0.9525189194        0.0644626779
 N          1.1619403194       -0.3561742256       -0.0313926803
 H          0.0000853093       -2.0235662137        0.2271975151
 C         -2.4085540373       -1.0775255740        0.0535095194
 C          2.4084999097       -1.0774596814        0.0540896155
 H         -2.9699728255       -0.7582329799        0.9332191785
 H         -2.2306187895       -2.1479062118        0.1196498134
 H         -3.0116836458       -0.8745836780       -0.8324761910
 H          3.0134417712       -0.8727376746       -0.8300989432
 H          2.2306533441       -2.1480321108        0.1179024120
 H          2.9679977218       -0.7598559195        0.9357335815
 C         -1.2432990996        1.0811076601       -0.2294004340
 C          1.2432659816        1.0811456876       -0.2298929225
 C          0.0000797135        1.7464325594        0.3470046062
 H         -2.1415226213        1.4501904107        0.2688300403
 H         -1.3377672835        1.2939462252       -1.2994040993
 H          0.0003211058        1.6402260471        1.4331729475
 H          0.0000290110        2.8081059927        0.1090832586
 H          1.3374130919        1.2940136209       -1.2999077190
 H          2.1416886490        1.4500826755        0.2680895522
  21
  -24.9585610600000       5.370820959050018E-002 !mtd8
 N         -1.1619734433       -0.3561369303       -0.0309875069
 C         -0.0000076234       -0.9524063460        0.0649184600
 N          1.1619861632       -0.3561054283       -0.0308181853
 H         -0.0000029312       -2.0234406552        0.2279319979
 C         -2.4085315128       -1.0775573443        0.0534842912
 C          2.4085080565       -1.0775296036        0.0534852903
 H         -2.9700379995       -0.7581160148        0.9330302958
 H         -2.2305863335       -2.1478702964        0.1199533327
 H         -3.0116216488       -0.8749244871       -0.8325047067
 H          2.9706150534       -0.7572374574        0.9324894979
 H          3.0111425864       -0.8757832947       -0.8332395287
 H          2.2304255022       -2.1478631542        0.1210997073
 C         -1.2433996521        1.0810885980       -0.2295024813
 C          1.2433888345        1.0811070601       -0.2296331407
 C          0.0000359645        1.7463989971        0.3468322265
 H         -2.1415527753        1.4500680085        0.2689273747
 H         -1.3381197410        1.2940762376       -1.2994094935
 H          0.0000481282        1.6403908881        1.4329900909
 H          0.0000058595        2.8080167128        0.1087057945
 H          1.3378683650        1.2938543048       -1.2996599050
 H          2.1417098680        1.4501900507        0.2685322579
  21
  -24.9585610400000       5.370707292742760E-002 !mtd1
 N         -1.1619780785       -0.3561371862       -0.0307110258
 C         -0.0000136089       -0.9524830638        0.0647481380
 N          1.1619469377       -0.3560980190       -0.0304431464
 H         -0.0000114449       -2.0235763896        0.2273707213
 C         -2.4085748767       -1.0775048507        0.0537960944
 C          2.4085007489       -1.0776141519        0.0529163834
 H         -2.2305888118       -2.1477587873        0.1214965338
 H         -3.0113418397       -0.8757546038       -0.8326822150
 H         -2.9704784420       -0.7571620503        0.9328473834
 H          2.2305200307       -2.1480442514        0.1165939079
 H          2.9695308428       -0.7603454818        0.9336323559
 H          3.0121240901       -0.8726710465       -0.8322013756
 C         -1.2432384899        1.0809542833       -0.2303530398
 C          1.2435676105        1.0812025232       -0.2287285986
 C         -0.0002395238        1.7465323868        0.3466506805
 H         -2.1418465296        1.4503152103        0.2670096963
 H         -1.3369652247        1.2931072255       -1.3005725020
 H         -0.0010763037        1.6410570740        1.4328874508
 H         -0.0000869612        2.8080335057        0.1080059775
 H          1.3393172087        1.2942158488       -1.2985773685
 H          2.1413139777        1.4500148088        0.2705957467
  21
  -24.9585610400000       5.370707292742760E-002 !gc
 N         -1.1619699628       -0.3561651160       -0.0308248147
 C          0.0000322832       -0.9525252927        0.0643684965
 N          1.1619350564       -0.3561738613       -0.0315271013
 H          0.0001038805       -2.0235725767        0.2270764183
 C         -2.4085652263       -1.0775040933        0.0536513546
 C          2.4084931453       -1.0774499475        0.0541612418
 H         -2.2306782635       -2.1478816957        0.1195560712
 H         -3.0120080284       -0.8742869090       -0.8320273231
 H         -2.9696716383       -0.7583337623        0.9336735078
 H          3.0141128740       -0.8716283659       -0.8292980253
 H          2.2306871793       -2.1481147564        0.1165485225
 H          2.9672543699       -0.7608493300        0.9366370319
 C         -1.2432786906        1.0810936123       -0.2294999325
 C          1.2432980578        1.0811756471       -0.2298033457
 C          0.0000541808        1.7463856819        0.3470549782
 H         -2.1415592713        1.4501824370        0.2686255518
 H         -1.3376086246        1.2939491709       -1.2995113814
 H          0.0002017410        1.6400711446        1.4332137867
 H          0.0000144150        2.8080818191        0.1092410339
 H          1.3375572904        1.2941880781       -1.2997778439
 H          2.1416769702        1.4500135053        0.2683313753
  21
  -24.9585610300000       5.370650460491233E-002 !mtd4
 N         -1.1619770460       -0.3561038812       -0.0304538643
 C         -0.0000218861       -0.9525366020        0.0646585287
 N          1.1619671562       -0.3560712128       -0.0301786275
 H          0.0001472728       -2.0236077785        0.2273996777
 C         -2.4086045512       -1.0774690404        0.0535945139
 C          2.4085186019       -1.0775476133        0.0529032265
 H         -2.9700757605       -0.7582350386        0.9332915063
 H         -2.2306644903       -2.1478279453        0.1197209462
 H         -3.0116389803       -0.8744583244       -0.8323911556
 H          2.2306093669       -2.1479358111        0.1188637650
 H          2.9706964201       -0.7586160669        0.9323511529
 H          3.0111436029       -0.8743609946       -0.8333756759
 C         -1.2432987521        1.0809776127       -0.2302080182
 C          1.2435608304        1.0811660591       -0.2289744550
 C         -0.0002101065        1.7464599909        0.3466526794
 H         -2.1420531841        1.4503707255        0.2668623493
 H         -1.3366996464        1.2929642047       -1.3004669183
 H         -0.0007550476        1.6407803978        1.4328408126
 H         -0.0001554748        2.8079912879        0.1081892047
 H          1.3385942336        1.2938002183       -1.2989593678
 H          2.1416548453        1.4501684131        0.2696349352
  21
  -24.9585610200000       5.370593628861290E-002 !mtd6
 N         -1.1619469226       -0.3557900751        0.0342809306
 C          0.0000142497       -0.9531523445       -0.0545265639
 N          1.1619880831       -0.3558438264        0.0341053613
 H         -0.0000220257       -2.0259344618       -0.2057484979
 C         -2.4084613536       -1.0781091486       -0.0415619509
 C          2.4086057826       -1.0780283768       -0.0421487204
 H         -2.9702291480       -0.7685306546       -0.9246036675
 H         -3.0113614224       -0.8655885805        0.8422861193
 H         -2.2304552540       -2.1491299929       -0.0962022618
 H          2.2307759351       -2.1491500515       -0.0966269845
 H          3.0116371041       -0.8652551171        0.8415670405
 H          2.9699810138       -0.7683413840       -0.9254145018
 C         -1.2435336820        1.0835511317        0.2173738660
 C          1.2431936474        1.0832999077        0.2186958723
 C          0.0001861823        1.7429359773       -0.3650673673
 H         -1.3392361381        1.3078827792        1.2849160923
 H         -2.1413003706        1.4470983399       -0.2857601785
 H          0.0000410442        2.8068696681       -0.1374766428
 H          0.0008214522        1.6261903826       -1.4501237808
 H          2.1417433102        1.4474493171       -0.2825628315
 H          1.3369749787        1.3065452619        1.2866199030
  21
  -24.9585610100000       5.370536797812542E-002 !mtd5
 N         -1.1620217946       -0.3561414414       -0.0302648440
 C          0.0000047544       -0.9524678072        0.0644881937
 N          1.1619867912       -0.3561344073       -0.0310146716
 H          0.0001067582       -2.0235965092        0.2270179109
 C         -2.4085234009       -1.0776115736        0.0530704287
 C          2.4085256053       -1.0775163808        0.0538875910
 H         -3.0115760333       -0.8739929064       -0.8328592127
 H         -2.9703359767       -0.7589576975        0.9328752105
 H         -2.2305629507       -2.1480153100        0.1185832015
 H          2.2305151930       -2.1479910533        0.1181260031
 H          2.9685972263       -0.7596421354        0.9350312455
 H          3.0128602784       -0.8731255869       -0.8308050202
 C         -1.2436295566        1.0810796871       -0.2289497917
 C          1.2435291610        1.0810805432       -0.2298598383
 C          0.0001691378        1.7465461103        0.3464616948
 H         -2.1416028081        1.4500875209        0.2699002078
 H         -1.3389470041        1.2937293972       -1.2989075593
 H          0.0005887872        1.6415847300        1.4327215125
 H          0.0000635383        2.8079531686        0.1073625584
 H          1.3379556313        1.2935936762       -1.2999219590
 H          2.1419216802        1.4500891107        0.2682063610
  21
  -24.9585610000000       5.370479967365174E-002 !mtd3
 N         -1.1619582499       -0.3557936396        0.0344708101
 C          0.0000093230       -0.9531619131       -0.0543744598
 N          1.1619553524       -0.3558775858        0.0352482799
 H         -0.0000062390       -2.0259135025       -0.2056606365
 C         -2.4085313025       -1.0781100544       -0.0416055935
 C          2.4085756760       -1.0778457988       -0.0431769957
 H         -2.9695989508       -0.7695667814       -0.9254219508
 H         -3.0120942841       -0.8643494319        0.8415047694
 H         -2.2306280167       -2.1492070468       -0.0946570735
 H          3.0139471072       -0.8635068048        0.8385414137
 H          2.9676366286       -0.7695277687       -0.9284009720
 H          2.2308558406       -2.1490476114       -0.0953748904
 C         -1.2435270358        1.0835952739        0.2170156253
 C          1.2430942439        1.0833656323        0.2192719560
 C          0.0004190508        1.7426691638       -0.3654441540
 H         -1.3394205359        1.3082586797        1.2844732733
 H         -2.1412337054        1.4469489908       -0.2863875178
 H          0.0003294463        2.8067729742       -0.1386468375
 H          0.0017289564        1.6250831910       -1.4504244838
 H          2.1419718177        1.4473760803       -0.2815173572
 H          1.3360760574        1.3071226003        1.2871756885
  21
  -24.9585609500000       5.370195824169004E-002 !mtd5
 N         -1.1619631511       -0.3562620578       -0.0320375588
 C         -0.0000059034       -0.9525905954        0.0637618139
 N          1.1619614159       -0.3561652249       -0.0312875048
 H         -0.0000217903       -2.0236477412        0.2265638904
 C         -2.4085637553       -1.0772175933        0.0550867609
 C          2.4085174529       -1.0774192503        0.0538343647
 H         -3.0139448044       -0.8737433451       -0.8291483178
 H         -2.9675642657       -0.7579998698        0.9364106413
 H         -2.2308634141       -2.1476178722        0.1205149863
 H          2.9686366863       -0.7589726559        0.9347192915
 H          3.0128747341       -0.8733951648       -0.8309716058
 H          2.2307300132       -2.1478524592        0.1186535770
 C         -1.2431196557        1.0810420571       -0.2306501770
 C          1.2434699635        1.0812736441       -0.2287257772
 C         -0.0003263769        1.7461220536        0.3473073663
 H         -2.1420245055        1.4500829231        0.2663801614
 H         -1.3361307018        1.2938792718       -1.3007585921
 H         -0.0011899358        1.6391337258        1.4333766580
 H         -0.0001945904        2.8079478268        0.1101113050
 H          1.3386154748        1.2948932489       -1.2984904039
 H          2.1414381612        1.4499244324        0.2703288453
  21
  -24.9585608800000       5.369798048962656E-002 !mtd8
 N         -1.1619959715       -0.3561048818       -0.0306465527
 C         -0.0000128203       -0.9525012657        0.0643938775
 N          1.1619693890       -0.3561762137       -0.0310038134
 H          0.0000060907       -2.0235806716        0.2271327381
 C         -2.4085252431       -1.0775919578        0.0533277139
 C          2.4085661424       -1.0774094749        0.0540055205
 H         -2.2302998494       -2.1475909682        0.1248923547
 H         -3.0093974117       -0.8789894212       -0.8351784515
 H         -2.9724867507       -0.7545158358        0.9301110698
 H          2.9676708808       -0.7610495573        0.9364113458
 H          3.0139182810       -0.8711182579       -0.8296907582
 H          2.2308028159       -2.1481155890        0.1159293608
 C         -1.2435212240        1.0811828502       -0.2290490526
 C          1.2433121272        1.0810309480       -0.2300880681
 C          0.0002119105        1.7464274255        0.3467990350
 H         -2.1415785690        1.4501153017        0.2696550428
 H         -1.3386029103        1.2940974409       -1.2989625429
 H          0.0008064279        1.6405259202        1.4329834114
 H          0.0002082924        2.8080292929        0.1085577054
 H          1.3370220747        1.2934564340       -1.3002301427
 H          2.1419318989        1.4501921977        0.2674082044
  21
  -24.9567999900000       8.331226457358891E-003 !gc
 N         -1.1692762743       -0.3408770555       -0.0190416967
 C         -0.0078457710       -0.9423408446        0.0696825294
 N          1.1577571598       -0.3554176826       -0.0325337237
 H         -0.0183455711       -2.0136390154        0.2322720004
 C         -2.3951219407       -1.1115641855        0.0379667616
 C          2.3996593866       -1.0838321244        0.0569707783
 H         -2.4683347398       -1.7871395743       -0.8153603903
 H         -3.2473301988       -0.4384520586        0.0153372496
 H         -2.4410222125       -1.6989925267        0.9552554759
 H          2.2148352265       -2.1524999395        0.1311581449
 H          2.9633655306       -0.7615193993        0.9341560774
 H          3.0038138673       -0.8910174569       -0.8305172510
 C         -1.2442648702        1.0964313682       -0.2148736448
 C          1.2457047980        1.0795003852       -0.2423704532
 C          0.0117835616        1.7534919550        0.3441238593
 H         -2.1279380151        1.4751288511        0.3016566087
 H         -1.3554347558        1.3129766885       -1.2827402779
 H          0.0231647702        1.6507220893        1.4305629891
 H          0.0150378624        2.8144263966        0.1028517281
 H          1.3288248372        1.2845072365       -1.3147846974
 H          2.1512859516        1.4474317474        0.2431754340
  21
  -24.9567983600000       8.316868664291502E-003 !gc
 N         -1.1690818471       -0.3410967154       -0.0192751366
 C         -0.0077383560       -0.9426067250        0.0694855563
 N          1.1577954187       -0.3555803646       -0.0329019950
 H         -0.0182597794       -2.0138717294        0.2320135228
 C         -2.3953022972       -1.1111777090        0.0379772949
 C          2.3998117282       -1.0836569929        0.0575415843
 H         -2.4449017945       -1.6928925990        0.9586984629
 H         -2.4656257697       -1.7918860220       -0.8114710273
 H         -3.2472282114       -0.4379373151        0.0079184095
 H          3.0042260788       -0.8915267534       -0.8298579325
 H          2.2152574521       -2.1523603906        0.1327190279
 H          2.9630780574       -0.7604009379        0.9347162009
 C         -1.2442132182        1.0962909084       -0.2143473793
 C          1.2453520704        1.0794004268       -0.2428687082
 C          0.0118348685        1.7536689870        0.3441544350
 H         -2.1275498843        1.4747032448        0.3029854173
 H         -1.3562062714        1.3134381697       -1.2820178945
 H          0.0236676306        1.6507954427        1.4305879514
 H          0.0152100049        2.8146432363        0.1029849397
 H          1.3279385658        1.2842416184       -1.3153467881
 H          2.1511131137        1.4475316682        0.2421761307
  21
  -24.9567979000000       8.312821250401248E-003 !gc
 N         -1.1690974407       -0.3411218998       -0.0194525663
 C         -0.0077503047       -0.9426075712        0.0694288125
 N          1.1577841929       -0.3555490843       -0.0327736052
 H         -0.0182596201       -2.0138669555        0.2319953722
 C         -2.3953348584       -1.1111307136        0.0384297673
 C          2.3997846227       -1.0837299849        0.0571711585
 H         -2.4649263061       -1.7936751722       -0.8095472462
 H         -3.2472727154       -0.4380092755        0.0062879960
 H         -2.4456632278       -1.6908469892        0.9604021913
 H          2.9631199929       -0.7611329414        0.9344754391
 H          3.0041185226       -0.8910804034       -0.8302011251
 H          2.2151698737       -2.1525016286        0.1315627017
 C         -1.2440708928        1.0962002495       -0.2150589238
 C          1.2455113661        1.0795035178       -0.2421508790
 C          0.0116083333        1.7536845212        0.3441593129
 H         -2.1277777518        1.4748315683        0.3014583272
 H         -1.3551967191        1.3129988232       -1.2828963950
 H          0.0227845551        1.6508629075        1.4306022647
 H          0.0150574595        2.8146460072        0.1029388594
 H          1.3289935518        1.2847379380       -1.3144872837
 H          2.1509029262        1.4474156524        0.2437622710
  21
  -24.9567969400000       8.304380817112225E-003 !gc
 N         -1.1690781698       -0.3411327711       -0.0198162317
 C         -0.0077412186       -0.9426065267        0.0692080797
 N          1.1578055354       -0.3556026065       -0.0330962684
 H         -0.0183000097       -2.0138770792        0.2317520872
 C         -2.3953038751       -1.1111662003        0.0383521579
 C          2.3998237033       -1.0836080019        0.0578528372
 H         -2.4488224899       -1.6854514432        0.9635569140
 H         -2.4616845222       -1.7987111048       -0.8058233782
 H         -3.2472393771       -0.4384422009       -0.0009108273
 H          2.2153525701       -2.1523902677        0.1317562805
 H          2.9622560640       -0.7610890622        0.9358049501
 H          3.0050239381       -0.8905267908       -0.8288635961
 C         -1.2442586477        1.0963610048       -0.2142141897
 C          1.2453409045        1.0793845359       -0.2429586708
 C          0.0118774386        1.7535857790        0.3442706210
 H         -2.1274797855        1.4745025616        0.3035187272
 H         -1.3564978873        1.3139219550       -1.2817692245
 H          0.0238292209        1.6505413693        1.4306844531
 H          0.0152429233        2.8146024655        0.1032706929
 H          1.3277845987        1.2843140128       -1.3154319490
 H          2.1511396055        1.4475156613        0.2420112470
