16
	Energy:       5.7532173
C         -3.90706        0.95818       -0.03991
C         -2.73170       -0.01370        0.01174
H         -4.86104        0.39137       -0.00044
H         -3.88138        1.54604       -0.98209
H         -3.87120        1.65387        0.82548
C         -1.39362        0.73276       -0.03522
H         -2.80270       -0.71001       -0.85232
H         -2.79665       -0.60394        0.95188
C         -0.21578       -0.24437        0.02284
H         -1.32928        1.42898        0.82989
H         -1.33345        1.32427       -0.97545
N          1.04804        0.48450        0.00248
H         -0.25827       -0.94436       -0.84176
H         -0.27494       -0.83625        0.96257
H          1.14192        0.98625       -0.91066
H          1.83089       -0.20554        0.06956
