  16
        -17.08707725
 C         -2.5517912692        0.3231057967        0.0001056218
 C         -1.2828489545       -0.5215778596        0.0001116221
 H         -3.4336773020       -0.3128729681        0.0012009826
 H         -2.5874295158        0.9582779543       -0.8824000044
 H         -2.5863716030        0.9598446077        0.8815064114
 C         -0.0245447772        0.3421634813       -0.0003112819
 H         -1.2750789539       -1.1669822289       -0.8811615925
 H         -1.2747672069       -1.1664779504        0.8817450248
 C          1.2557502489       -0.5038095252       -0.0001673532
 H         -0.0278617620        0.9878201202        0.8828705539
 H         -0.0280391681        0.9873102444       -0.8838586049
 N          2.4940233265        0.2602981742        0.0001804707
 H          1.2673483790       -1.1480668936       -0.8842291796
 H          1.2669714893       -1.1482798608        0.8837364737
 H          2.5223277833        0.8612312235        0.8172683155
 H          2.5221084483        0.8623302332       -0.8160714040
