  29
        -44.03619611
 N         -1.0713772709       -0.5535636560       -0.0070981876
 C          0.0000545788        0.2884530117        0.0006859106
 N          1.0714175991       -0.5537185289        0.0069251540
 C          0.6743689092       -1.8750851183       -0.0012475779
 C         -0.6745398561       -1.8749750838       -0.0012597484
 C         -2.3923254538       -0.0940250086       -0.0146273439
 C          2.3923766871       -0.0942017345        0.0148567926
 C         -3.4468084795       -0.9007168673        0.4002148972
 C         -2.6505007092        1.2072563905       -0.4397514920
 C          3.4472574947       -0.9012126749       -0.3983629553
 C          2.6501975040        1.2076090423        0.4386335593
 H          1.3581281435       -2.6977840392        0.0226891181
 H         -1.3585387111       -2.6974418692       -0.0268783947
 C         -3.9447861772        1.6873466720       -0.4541293446
 C         -4.9959654985        0.8783942585       -0.0525512620
 C         -4.7408924074       -0.4124207322        0.3755831149
 C          4.7412484280       -0.4126573069       -0.3736564894
 C          4.9959061232        0.8787517748        0.0529081756
 C          3.9443766991        1.6879675624        0.4530202783
 H         -3.2642514798       -1.9030103854        0.7574790458
 H         -1.8179848565        1.8201459563       -0.7466640440
 H         -4.1359607165        2.6972532617       -0.7852390532
 H         -6.0083132623        1.2532202628       -0.0695293382
 H         -5.5535554144       -1.0463774982        0.6989554284
 H          3.2652486277       -1.9040531647       -0.7543296800
 H          4.1352185182        2.6982260567        0.7832613087
 H          1.8174567131        1.8206521750        0.7445928195
 H          5.5541787407       -1.0469463599       -0.6957115086
 H          6.0081964764        1.2537431722        0.0700070685
  29
        -44.03600256
 N         -1.0693835462       -0.5101836273       -0.2329856146
 C          0.0002202547        0.2599905587        0.1072330386
 N          1.0749402756       -0.5271938933       -0.1885557152
 C          0.6760316904       -1.7490486114       -0.6920781795
 C         -0.6722278229       -1.7366352143       -0.7238151841
 C         -2.3906926542       -0.0745496335       -0.0898872652
 C          2.3933136115       -0.1028152935        0.0092210549
 C         -2.6697804655        0.9466046204        0.8152791769
 C         -3.4245733512       -0.6318638236       -0.8347926483
 C          3.4826128543       -0.8569409731       -0.4156238941
 C          2.6178809995        1.1152678197        0.6492912468
 H          1.3519435311       -2.5281656430       -0.9749753687
 H         -1.3573230309       -2.5026571191       -1.0222526939
 C         -4.7204577254       -0.1793842325       -0.6630762706
 C         -4.9969004038        0.8306768535        0.2414080748
 C         -3.9655667894        1.3954446492        0.9748187048
 C          4.7699912590       -0.4000114514       -0.1960725379
 C          4.9888434055        0.8079321034        0.4412596929
 C          3.9056187742        1.5642683741        0.8599875328
 H         -1.8525828833        1.3731046076        1.3747096740
 H         -3.2225472435       -1.4057425798       -1.5600437415
 H         -5.5175337372       -0.6178618342       -1.2454973092
 H         -6.0106428180        1.1786650622        0.3712917097
 H         -4.1737528816        2.1867623185        1.6794219770
 H          3.3415284291       -1.7984589741       -0.9234775946
 H          4.0659441948        2.5101204060        1.3557653248
 H          1.7623898729        1.6897723162        0.9660860954
 H          5.6070276238       -0.9959854930       -0.5294573344
 H          5.9960911278        1.1584164500        0.6088933482
  29
        -44.03573899
 N         -1.0721199717       -0.5319469069       -0.1985200463
 C         -0.0009737465        0.2612847012        0.0890858254
 N          1.0761075441       -0.5350265307       -0.1660064157
 C          0.6806069958       -1.7845650793       -0.5987748577
 C         -0.6672857619       -1.7826051289       -0.6192561483
 C         -2.3939332869       -0.0911848043       -0.0686444346
 C          2.3946424295       -0.0980612447        0.0038654269
 C         -2.6305080365        1.2099894309        0.3727777218
 C         -3.4767011026       -0.9127168221       -0.3668725946
 C          3.4835792035       -0.9227312575       -0.2614213871
 C          2.6214778880        1.2024301079        0.4523556260
 H          1.3573027509       -2.5714131791       -0.8567740476
 H         -1.3381156553       -2.5675048333       -0.8976988195
 C         -4.7683708764       -0.4377826925       -0.2247620180
 C         -4.9988548519        0.8536423274        0.2134725741
 C         -3.9226731472        1.6745459269        0.5113029979
 C          4.7717115050       -0.4515214306       -0.0801891104
 C          4.9925280281        0.8392492399        0.3648975679
 C          3.9101839573        1.6632586485        0.6300250006
 H         -1.7811746408        1.8339181160        0.5996032454
 H         -3.3284788027       -1.9245047381       -0.7107391273
 H         -5.5993137733       -1.0867905188       -0.4598983721
 H         -6.0094132855        1.2176482608        0.3220706034
 H         -4.0923087141        2.6844160750        0.8540951173
 H          3.3429318465       -1.9341014575       -0.6096705207
 H          4.0722617829        2.6726515502        0.9778426618
 H          1.7674609201        1.8287991498        0.6534051062
 H          5.6075261730       -1.1029155661       -0.2901078813
 H          6.0003760485        1.2003559505        0.5040611728
