  29
  -44.0361961100000       8.544647475206361E-002 !mtd4
 N         -1.0713772709       -0.5535636560       -0.0070981876
 C          0.0000545788        0.2884530117        0.0006859106
 N          1.0714175991       -0.5537185289        0.0069251540
 C          0.6743689092       -1.8750851183       -0.0012475779
 C         -0.6745398561       -1.8749750838       -0.0012597484
 C         -2.3923254538       -0.0940250086       -0.0146273439
 C          2.3923766871       -0.0942017345        0.0148567926
 C         -3.4468084795       -0.9007168673        0.4002148972
 C         -2.6505007092        1.2072563905       -0.4397514920
 C          3.4472574947       -0.9012126749       -0.3983629553
 C          2.6501975040        1.2076090423        0.4386335593
 H          1.3581281435       -2.6977840392        0.0226891181
 H         -1.3585387111       -2.6974418692       -0.0268783947
 C         -3.9447861772        1.6873466720       -0.4541293446
 C         -4.9959654985        0.8783942585       -0.0525512620
 C         -4.7408924074       -0.4124207322        0.3755831149
 C          4.7412484280       -0.4126573069       -0.3736564894
 C          4.9959061232        0.8787517748        0.0529081756
 C          3.9443766991        1.6879675624        0.4530202783
 H         -3.2642514798       -1.9030103854        0.7574790458
 H         -1.8179848565        1.8201459563       -0.7466640440
 H         -4.1359607165        2.6972532617       -0.7852390532
 H         -6.0083132623        1.2532202628       -0.0695293382
 H         -5.5535554144       -1.0463774982        0.6989554284
 H          3.2652486277       -1.9040531647       -0.7543296800
 H          4.1352185182        2.6982260567        0.7832613087
 H          1.8174567131        1.8206521750        0.7445928195
 H          5.5541787407       -1.0469463599       -0.6957115086
 H          6.0081964764        1.2537431722        0.0700070685
  29
  -44.0361960300000       8.543924153677349E-002 !gc
 N         -1.0709295694       -0.5522309752       -0.0313926486
 C          0.0002154058        0.2896222263       -0.0012724721
 N          1.0711790172       -0.5527759631        0.0244067402
 C          0.6739439359       -1.8740545090        0.0149241602
 C         -0.6742188316       -1.8737037471       -0.0290280484
 C         -2.3916749576       -0.0931702698       -0.0641278089
 C          2.3918619805       -0.0939322952        0.0618211954
 C         -2.6643145356        1.2058573909        0.3587868245
 C         -3.4317692623       -0.8986136417       -0.5161041029
 C          2.6643243192        1.2093832028       -0.3479359094
 C          3.4320746525       -0.9033385916        0.5063893990
 H          1.3579780593       -2.6968510940        0.0103358477
 H         -1.3587917481       -2.6960767245       -0.0285880210
 C         -4.7264886289       -0.4115858774       -0.5298233825
 C         -4.9961957024        0.8768317571       -0.1034151885
 C         -3.9589290146        1.6847373854        0.3348518943
 C          3.9585936967        1.6887996283       -0.3176898747
 C          4.9958912773        0.8771925905        0.1135409615
 C          4.7264876727       -0.4157004539        0.5263369332
 H         -1.8424881832        1.8179683065        0.6947012679
 H         -3.2370122100       -1.8989088454       -0.8725529856
 H         -5.5279271260       -1.0446393452       -0.8817587678
 H         -6.0089991780        1.2506226224       -0.1162370780
 H         -4.1614598830        2.6928550557        0.6645700847
 H          1.8425394294        1.8243227748       -0.6787146880
 H          5.5279079000       -1.0518883638        0.8725583052
 H          3.2378535006       -1.9074456310        0.8521678882
 H          4.1608876989        2.7002444066       -0.6373317497
 H          6.0084046313        1.2515386407        0.1314806656
  29
  -44.0361960100000       8.543743332846522E-002 !md3
 N         -1.0669379560       -0.4606509835       -0.3207538724
 C         -0.0022787305        0.2416481088        0.1593046310
 N          1.0754315034       -0.4689838018       -0.2773098026
 C          0.6886493469       -1.5784574601       -1.0005390929
 C         -0.6597460905       -1.5683422389       -1.0353247427
 C         -2.3913315938       -0.0687599741       -0.1002383148
 C          2.3927132165       -0.0892062445       -0.0003909001
 C         -2.6720015715        0.7930353825        0.9576784591
 C         -3.4271238101       -0.5107849256       -0.9166730503
 C          3.4425525104       -0.9993750600       -0.0664082292
 C          2.6519193479        1.2315524868        0.3589446331
 H          1.3791401476       -2.2602214510       -1.4514235954
 H         -1.3374760584       -2.2670714860       -1.4795497349
 C         -4.7254224138       -0.1041595285       -0.6661782710
 C         -5.0030029212        0.7473186991        0.3885784582
 C         -3.9701697995        1.1983802924        1.1950842669
 C          4.7332743807       -0.5861320058        0.2108710550
 C          4.9895104246        0.7275207167        0.5619488912
 C          3.9426924645        1.6323213529        0.6404329784
 H         -1.8535247913        1.1331567615        1.5719301998
 H         -3.2263610455       -1.1583433246       -1.7568473455
 H         -5.5234841245       -0.4530328047       -1.3051566184
 H         -6.0185967560        1.0606676874        0.5787682013
 H         -4.1789269015        1.8661888278        2.0174507683
 H          3.2586075770       -2.0330359540       -0.3178887230
 H          4.1346344253        2.6581344489        0.9177841715
 H          1.8228530274        1.9188729982        0.4151096813
 H          5.5422513123       -1.2999145015        0.1562241577
 H          5.9992200457        1.0436157381        0.7768761634
  29
  -44.0361958900000       8.542658488350689E-002 !mtd6
 N         -1.0754396526       -0.4678257970        0.2799539076
 C          0.0022278094        0.2433511355       -0.1555228718
 N          1.0668708722       -0.4590789438        0.3245230663
 C          0.6594480403       -1.5673032516        1.0383496185
 C         -0.6889485678       -1.5776714614        1.0028290546
 C         -2.3926090984       -0.0887962246        0.0014459797
 C          2.3911453286       -0.0681041332        0.1018743462
 C         -3.4405805164       -1.0017037389        0.0575908608
 C         -2.6531939552        1.2337987464       -0.3499337498
 C          2.6694985805        0.7978197025       -0.9533176237
 C          3.4293193535       -0.5153851527        0.9124272719
 H          1.3371242807       -2.2658167703        1.4830623350
 H         -1.3800517612       -2.2594613378        1.4528333106
 C         -3.9438013306        1.6337256857       -0.6333920956
 C         -4.9888745095        0.7261126710       -0.5648620079
 C         -4.7311581642       -0.5893675500       -0.2217594088
 C          3.9674362780        1.2020065811       -1.1939204779
 C          5.0025481487        0.7455432730       -0.3934354908
 C          4.7273705201       -0.1100376679        0.6586303454
 H         -3.2549866014       -2.0366563933        0.3025367551
 H         -1.8253660404        1.9231949308       -0.3987382714
 H         -4.1369686878        2.6609149775       -0.9048757392
 H         -5.9984496602        1.0413662306       -0.7816451287
 H         -5.5388016029       -1.3051927683       -0.1752591271
 H          1.8493257520        1.1419176448       -1.5630805700
 H          5.5272189481       -0.4632570021        1.2929472781
 H          3.2308701195       -1.1664531505        1.7504407684
 H          4.1741312257        1.8733302631       -2.0140970693
 H          6.0179157545        1.0578291993       -0.5861522038
  29
  -44.0361621100000       8.242687436969723E-002 !mtd12
 N         -1.0689169199       -0.5148633473       -0.2071280174
 C         -0.0012740389        0.2776250187        0.0921798166
 N          1.0737555348       -0.5112308225       -0.1892122351
 C          0.6827803316       -1.7506531071       -0.6526104233
 C         -0.6659466158       -1.7529090333       -0.6639981982
 C         -2.3924069948       -0.0915609100       -0.0491905940
 C          2.3931099115       -0.0836443694       -0.0096455321
 C         -2.6612111845        1.2739363382        0.0121148608
 C         -3.4400194360       -1.0005704981        0.0564548111
 C          3.4401608566       -0.9897328939        0.1229201954
 C          2.6579008104        1.2828359781        0.0459180197
 H          1.3709930232       -2.5095115822       -0.9616048839
 H         -1.3459734806       -2.5142980841       -0.9845949674
 C         -4.7374340392       -0.5449029957        0.2069460013
 C         -5.0029349516        0.8119807080        0.2611637594
 C         -3.9587028642        1.7184773044        0.1693790792
 C          4.7336328099       -0.5302486664        0.2942859511
 C          4.9953896603        0.8276060034        0.3425792399
 C          3.9513840791        1.7312485012        0.2239877196
 H         -1.8343142318        1.9623600264       -0.0585712303
 H         -3.2494258246       -2.0630457956        0.0378056591
 H         -5.5445036289       -1.2583823796        0.2873352979
 H         -6.0178410944        1.1610112621        0.3784527233
 H         -4.1579206173        2.7787772555        0.2159657866
 H          3.2515755949       -2.0526632089        0.1091999280
 H          4.1477717774        2.7922840640        0.2656917370
 H          1.8311301387        1.9689439129       -0.0457224048
 H          5.5404226254       -1.2413713223        0.3956260605
 H          6.0072406437        1.1796564512        0.4761273814
  29
  -44.0361619900000       8.241640819078951E-002 !mtd12
 N         -1.0788762426       -0.2834126228        0.4528131954
 C          0.0040201124        0.1422277633       -0.2567366819
 N          1.0636279530       -0.2825133257        0.4877595055
 C          0.6483454793       -0.9538017043        1.6194814835
 C         -0.7002095337       -0.9544459867        1.5974779145
 C         -2.3940763934       -0.0436345505        0.0423202059
 C          2.3913739262       -0.0427192703        0.1198816909
 C         -2.6396155335        0.2542699350       -1.2961417337
 C         -3.4561729809       -0.0877437422        0.9395684334
 C          2.6797060996        0.2575042982       -1.2094930255
 C          3.4243230718       -0.0894148431        1.0503848901
 H          1.3211049055       -1.3974745626        2.3233655537
 H         -1.3955298856       -1.3983689718        2.2789462579
 C         -4.7450215861        0.1492360609        0.4965270330
 C         -4.9874685149        0.4386775211       -0.8346753956
 C         -3.9287297648        0.4960957683       -1.7270570234
 C          3.9821447786        0.4982869683       -1.5987575964
 C          5.0119794444        0.4374420230       -0.6734131788
 C          4.7269061725        0.1465845913        0.6489816812
 H         -1.8017301482        0.2962623007       -1.9735910311
 H         -3.2832866199       -0.2907144715        1.9857192882
 H         -5.5634473298        0.1119683273        1.2005553006
 H         -5.9958600598        0.6221530620       -1.1738987494
 H         -4.1099591447        0.7259220250       -2.7665096505
 H          1.8638318622        0.3024097730       -1.9130723329
 H          5.5224455886        0.1071032111        1.3786552600
 H          3.2180955045       -0.2936740885        2.0902251021
 H          4.1967585698        0.7301786204       -2.6313549745
 H          6.0308790067        0.6200049735       -0.9802145950
  29
  -44.0361619000000       8.240855942951356E-002 !mtd5
 N         -1.0728689070       -0.5328744476        0.1267275250
 C          0.0011491568        0.2786812275       -0.0854932408
 N          1.0695483047       -0.5276095986        0.1711807086
 C          0.6681258032       -1.7990664246        0.5262843454
 C         -0.6803880693       -1.8023149470        0.4984146492
 C         -2.3925734067       -0.0938935279       -0.0197343504
 C          2.3918817815       -0.0816518479        0.0798543430
 C         -3.4525399372       -0.7572139848        0.5896396885
 C         -2.6448172404        1.0398011662       -0.7888444982
 C          2.6683793238        1.0595386715       -0.6696988093
 C          3.4307373974       -0.7449493127        0.7246864662
 H          1.3495130123       -2.5964766520        0.7378350371
 H         -1.3663467020       -2.6029192413        0.6813341579
 C         -3.9383595261        1.4946052878       -0.9493605959
 C         -4.9947814069        0.8248638614       -0.3529237169
 C         -4.7457296770       -0.2974875258        0.4170683800
 C          3.9648215067        1.5219114484       -0.7757124141
 C          5.0006005069        0.8523501433       -0.1437838263
 C          4.7273526727       -0.2776857562        0.6064968805
 H         -3.2747422055       -1.6218012437        1.2111951994
 H         -1.8085686393        1.5476202020       -1.2421746469
 H         -4.1247321265        2.3741775972       -1.5474397921
 H         -6.0065236855        1.1780583842       -0.4840304327
 H         -5.5626339347       -0.8196830460        0.8932554877
 H          1.8479560626        1.5670184738       -1.1513942119
 H          5.5276981632       -0.8000961065        1.1098961530
 H          3.2337172285       -1.6157692867        1.3315878176
 H          4.1698773845        2.4073160811       -1.3589285213
 H          6.0149457813        1.2113749243       -0.2323880513
  29
  -44.0361617000000       8.239112041226621E-002 !mtd3
 N         -1.0716376234       -0.5422519092        0.0979244898
 C         -0.0001895944        0.2880928348       -0.0441219191
 N          1.0712414005       -0.5414686253        0.1002560751
 C          0.6744882947       -1.8430223677        0.3289483385
 C         -0.6743037994       -1.8434829555        0.3277460723
 C         -2.3928566558       -0.0925702365        0.0086932855
 C          2.3926619589       -0.0916275093        0.0149123865
 C         -3.4431427626       -0.9647359047       -0.2580591442
 C         -2.6566415591        1.2640703334        0.1839378726
 C          3.4412969347       -0.9615567960       -0.2651115352
 C          2.6580501681        1.2622309785        0.2077840885
 H          1.3587181235       -2.6473070357        0.5019780103
 H         -1.3579384055       -2.6485178839        0.4993865665
 C         -3.9515877519        1.7349748686        0.0998407335
 C         -4.9985508084        0.8628047847       -0.1526800969
 C         -4.7381093063       -0.4840567443       -0.3332903843
 C          4.7367452618       -0.4815191380       -0.3358183290
 C          4.9989871857        0.8625002010       -0.1372848164
 C          3.9535249172        1.7325793600        0.1283632427
 H         -3.2568148192       -2.0152788411       -0.4227483514
 H         -1.8277010705        1.9259935258        0.3772344721
 H         -4.1467098914        2.7881570570        0.2370458191
 H         -6.0115699473        1.2313625149       -0.2124122249
 H         -5.5472449138       -1.1692336219       -0.5399787654
 H          3.2527334473       -2.0094026865       -0.4440631010
 H          4.1503106734        2.7835233093        0.2796045971
 H          1.8301408430        1.9225108027        0.4109519472
 H          5.5447494601       -1.1647363055       -0.5530564169
 H          6.0123939443        1.2306069138       -0.1931604458
  29
  -44.0360025600000       6.962171682694591E-002 !mtd5
 N         -1.0693835462       -0.5101836273       -0.2329856146
 C          0.0002202547        0.2599905587        0.1072330386
 N          1.0749402756       -0.5271938933       -0.1885557152
 C          0.6760316904       -1.7490486114       -0.6920781795
 C         -0.6722278229       -1.7366352143       -0.7238151841
 C         -2.3906926542       -0.0745496335       -0.0898872652
 C          2.3933136115       -0.1028152935        0.0092210549
 C         -2.6697804655        0.9466046204        0.8152791769
 C         -3.4245733512       -0.6318638236       -0.8347926483
 C          3.4826128543       -0.8569409731       -0.4156238941
 C          2.6178809995        1.1152678197        0.6492912468
 H          1.3519435311       -2.5281656430       -0.9749753687
 H         -1.3573230309       -2.5026571191       -1.0222526939
 C         -4.7204577254       -0.1793842325       -0.6630762706
 C         -4.9969004038        0.8306768535        0.2414080748
 C         -3.9655667894        1.3954446492        0.9748187048
 C          4.7699912590       -0.4000114514       -0.1960725379
 C          4.9888434055        0.8079321034        0.4412596929
 C          3.9056187742        1.5642683741        0.8599875328
 H         -1.8525828833        1.3731046076        1.3747096740
 H         -3.2225472435       -1.4057425798       -1.5600437415
 H         -5.5175337372       -0.6178618342       -1.2454973092
 H         -6.0106428180        1.1786650622        0.3712917097
 H         -4.1737528816        2.1867623185        1.6794219770
 H          3.3415284291       -1.7984589741       -0.9234775946
 H          4.0659441948        2.5101204060        1.3557653248
 H          1.7623898729        1.6897723162        0.9660860954
 H          5.6070276238       -0.9959854930       -0.5294573344
 H          5.9960911278        1.1584164500        0.6088933482
  29
  -44.0359962200000       6.915619118276103E-002 !mtd2
 N         -1.0659909498       -0.4155358121       -0.3852694725
 C         -0.0014379194        0.2150707927        0.1823914355
 N          1.0787355568       -0.4277414432       -0.3488756066
 C          0.6880152858       -1.4286577789       -1.2155383470
 C         -0.6603267464       -1.4183138030       -1.2413082103
 C         -2.3905161692       -0.0605922183       -0.1099009928
 C          2.3944112544       -0.0793946721       -0.0246841970
 C         -2.6737958287        0.6262591742        1.0682841886
 C         -3.4240581972       -0.3715303870       -0.9872642733
 C          2.6112543762        0.8847010082        0.9588905238
 C          3.4888098449       -0.6638651773       -0.6544080886
 H          1.3689977538       -2.0703731163       -1.7334853422
 H         -1.3396548153       -2.0552517450       -1.7684769284
 C         -4.7234189562       -0.0107674858       -0.6787993125
 C         -5.0038828671        0.6654465400        0.4954331642
 C         -3.9730244464        0.9877721900        1.3638341135
 C          3.8962332497        1.2510244167        1.3038626577
 C          4.9844878659        0.6627814225        0.6789662654
 C          4.7733500573       -0.2922230757       -0.2990661478
 H         -1.8570356087        0.8682109619        1.7294742900
 H         -3.2197793855       -0.8798560247       -1.9176328844
 H         -5.5200802008       -0.2569893208       -1.3655578443
 H         -6.0202945548        0.9433056725        0.7306769593
 H         -4.1842463145        1.5192234147        2.2798027004
 H          1.7520551253        1.3318251144        1.4323370713
 H          5.6142324335       -0.7550745901       -0.7947254639
 H          3.3542685573       -1.4057605532       -1.4262020316
 H          4.0504858116        1.9997463725        2.0665277031
 H          5.9895752221        0.9478728240        0.9511975836
  29
  -44.0359883100000       6.857974752466371E-002 !mtd12
 N         -1.0739008423       -0.5495139318        0.1047527725
 C         -0.0012324836        0.2791464923       -0.0546732177
 N          1.0709525079       -0.5421051952        0.1150532138
 C          0.6775986382       -1.8389413116        0.3724763808
 C         -0.6709925098       -1.8428917438        0.3704036376
 C         -2.3942244717       -0.0983464725        0.0014712436
 C          2.3920883407       -0.0912809167        0.0281510658
 C         -3.4779511616       -0.9688771267        0.0623005214
 C         -2.6271165005        1.2656265319       -0.1695424295
 C          2.6596530695        1.2599071847        0.2343074847
 C          3.4375045651       -0.9602246450       -0.2661435815
 H          1.3646680562       -2.6364155829        0.5652134275
 H         -1.3446476830       -2.6549557801        0.5450906506
 C         -3.9172770532        1.7442297847       -0.2737884417
 C         -4.9949021527        0.8753224565       -0.2066985705
 C         -4.7678118749       -0.4788208734       -0.0397944548
 C          3.9557178179        1.7289455594        0.1539150186
 C          4.9982668340        0.8600249224       -0.1263433815
 C          4.7332946672       -0.4815071453       -0.3383304260
 H         -3.3309445645       -2.0307829466        0.1843465052
 H         -1.7760771643        1.9254666182       -0.2208169110
 H         -4.0840170643        2.8028189603       -0.4069182014
 H         -6.0040666377        1.2506902509       -0.2855524906
 H         -5.6001497775       -1.1655885268        0.0106333196
 H          1.8339348979        1.9192230041        0.4495603313
 H          5.5392561076       -1.1633133283       -0.5671888584
 H          3.2446209185       -2.0055461965       -0.4555331047
 H          4.1552584582        2.7777211777        0.3161761280
 H          6.0119659878        1.2271887701       -0.1831420790
  29
  -44.0359882200000       6.857321646948919E-002 !mtd7
 N         -1.0729882893       -0.5471771541        0.0850986138
 C          0.0020240300        0.2769240925       -0.0497308669
 N          1.0718291139       -0.5534118097        0.1189003361
 C          0.6646829277       -1.8527090208        0.3462571739
 C         -0.6838423450       -1.8479175764        0.3291066554
 C         -2.3918364375       -0.0927810240       -0.0165837198
 C          2.3930828453       -0.0969059949        0.0606458660
 C         -3.4489543987       -0.7961732684        0.5510140074
 C         -2.6451317799        1.0958955117       -0.6970001575
 C          2.6290672717        1.2361373903       -0.2730347800
 C          3.4744765751       -0.9309682466        0.3266987139
 H          1.3356568921       -2.6727301383        0.4917675205
 H         -1.3727076106       -2.6594277245        0.4388579492
 C         -3.9380611544        1.5660562776       -0.8119157296
 C         -4.9920746865        0.8574991348       -0.2575044549
 C         -4.7415946974       -0.3200587734        0.4246727910
 C          3.9198674769        1.7194542765       -0.3401149315
 C          4.9952162096        0.8849318120       -0.0793666176
 C          4.7651086970       -0.4376153394        0.2538286881
 H         -3.2685246926       -1.7053165399        1.1047563436
 H         -1.8106088568        1.6322862738       -1.1196222621
 H         -4.1260332808        2.4879886411       -1.3418040910
 H         -6.0033738180        1.2230894247       -0.3534674583
 H         -5.5567518553       -0.8731199352        0.8679192890
 H          1.7796541925        1.8698169862       -0.4710176734
 H          5.5957196798       -1.0962883230        0.4616703693
 H          3.3251195886       -1.9651597429        0.5956274291
 H          4.0888546775        2.7542048257       -0.5986821716
 H          6.0049064633        1.2631233252       -0.1340074717
  29
  -44.0357389900000       5.267643109306441E-002 !input
 N         -1.0721199717       -0.5319469069       -0.1985200463
 C         -0.0009737465        0.2612847012        0.0890858254
 N          1.0761075441       -0.5350265307       -0.1660064157
 C          0.6806069958       -1.7845650793       -0.5987748577
 C         -0.6672857619       -1.7826051289       -0.6192561483
 C         -2.3939332869       -0.0911848043       -0.0686444346
 C          2.3946424295       -0.0980612447        0.0038654269
 C         -2.6305080365        1.2099894309        0.3727777218
 C         -3.4767011026       -0.9127168221       -0.3668725946
 C          3.4835792035       -0.9227312575       -0.2614213871
 C          2.6214778880        1.2024301079        0.4523556260
 H          1.3573027509       -2.5714131791       -0.8567740476
 H         -1.3381156553       -2.5675048333       -0.8976988195
 C         -4.7683708764       -0.4377826925       -0.2247620180
 C         -4.9988548519        0.8536423274        0.2134725741
 C         -3.9226731472        1.6745459269        0.5113029979
 C          4.7717115050       -0.4515214306       -0.0801891104
 C          4.9925280281        0.8392492399        0.3648975679
 C          3.9101839573        1.6632586485        0.6300250006
 H         -1.7811746408        1.8339181160        0.5996032454
 H         -3.3284788027       -1.9245047381       -0.7107391273
 H         -5.5993137733       -1.0867905188       -0.4598983721
 H         -6.0094132855        1.2176482608        0.3220706034
 H         -4.0923087141        2.6844160750        0.8540951173
 H          3.3429318465       -1.9341014575       -0.6096705207
 H          4.0722617829        2.6726515502        0.9778426618
 H          1.7674609201        1.8287991498        0.6534051062
 H          5.6075261730       -1.1029155661       -0.2901078813
 H          6.0003760485        1.2003559505        0.5040611728
