27
	Energy:      36.9878144
N         -1.97491       -0.41897        0.32622
C         -1.00296       -1.43647       -0.01915
N          0.19182       -0.68595       -0.34134
C         -0.07642        0.69395       -0.19047
C         -1.37568        0.85104        0.20666
C         -3.36061       -0.64395        0.71612
C          1.45083       -1.30638       -0.73729
C         -3.73363       -2.13341        0.66431
H         -4.02099       -0.10462        0.00194
C         -3.60843       -0.09594        2.12687
H          1.77145       -1.99602        0.07420
C          2.57524       -0.28009       -0.94499
C          1.25006       -2.12168       -2.02008
H          0.62152        1.50217       -0.36113
H         -1.86685        1.79616        0.39732
H         -3.39279        0.99217        2.16625
H         -2.95889       -0.61508        2.86403
H         -4.67093       -0.24361        2.41594
H         -3.58769       -2.52716       -0.36410
H         -4.80178       -2.27142        0.93699
H         -3.10759       -2.72166        1.36940
H          0.92535       -1.46096       -2.85246
H          0.47817       -2.90467       -1.86420
H          2.19668       -2.62668       -2.30859
H          2.31806        0.42913       -1.76089
H          3.52082       -0.79787       -1.21357
H          2.75221        0.28794       -0.00703
