  27
        -33.26586606
 N         -1.0663645251        0.0005586466       -0.0849072415
 C          0.0000406883       -0.0015539908       -0.9258728118
 N          1.0663752545        0.0001249684       -0.0848236086
 C          0.6759809173        0.0031745302        1.2314940973
 C         -0.6760579879        0.0034685900        1.2314378846
 C         -2.4349832839       -0.0010711832       -0.5468414360
 C          2.4349832308       -0.0011589575       -0.5467932742
 C         -3.1629367071       -1.2635951239       -0.0833026821
 H         -2.3705628135       -0.0026559733       -1.6410108728
 C         -3.1650495351        1.2615697013       -0.0870840361
 H          2.3704924302       -0.0030151388       -1.6409511071
 C          3.1635834314       -1.2632285821       -0.0830770149
 C          3.1644283945        1.2619738383       -0.0873388900
 H          1.3662152053        0.0048554739        2.0505122396
 H         -1.3663049134        0.0054393350        2.0504468043
 H         -2.6232039380        2.1469510954       -0.4119047968
 H         -3.2501480939        1.2844463434        0.9971795409
 H         -4.1638639858        1.2878856241       -0.5131047254
 H         -4.1610020984       -1.2940144633       -0.5107914306
 H         -3.2496557583       -1.2823995318        1.0009135926
 H         -2.6184356728       -2.1489256615       -0.4037956959
 H          3.2504777912        1.2845730802        0.9968567724
 H          2.6214967132        2.1469765882       -0.4114065596
 H          4.1628319677        1.2892981014       -0.5142583794
 H          4.1616922528       -1.2930729192       -0.5105231028
 H          2.6196593573       -2.1489473053       -0.4034952720
 H          3.2502917697       -1.2818756725        1.0011383465
