17
	Energy:      30.4163958
N         -2.15089       -0.46792       -0.43451
C         -1.04639       -1.43458       -0.36052
N          0.21760       -0.68667       -0.37603
C         -0.17032        0.64287       -0.83289
C         -1.51084        0.81994       -0.18486
C         -3.17824       -0.77631        0.56410
C          1.19000       -1.31895       -1.27101
H         -3.64527       -1.75694        0.33061
H         -3.97598       -0.00343        0.53598
H         -2.74954       -0.81930        1.59059
H          1.44461       -2.33198       -0.89262
H          2.12512       -0.71968       -1.29263
H          0.79287       -1.41276       -2.30622
H         -0.31860        0.65068       -1.93969
H          0.56231        1.42737       -0.54756
H         -2.08891        1.67430       -0.59675
H         -1.34461        0.97159        0.90873
