  21
  -24.9585611100000       5.283611878841001E-002 !mtd6
 C          1.2434073419        1.0834902515        0.2179654743
 C         -0.0000038458       -0.9531092963       -0.0547025312
 C         -1.2433306950        1.0834386882        0.2183112954
 C         -0.0000549119        1.7426945725       -0.3652794460
 H          1.3381170126        1.3075621782        1.2856502793
 H          0.0000298999       -2.0258505115       -0.2060806811
 H         -2.1417159886        1.4473292653       -0.2834691001
 H         -0.0001857136        1.6254412703       -1.4503082095
 N          1.1619507630       -0.3557882633        0.0345404482
 N         -1.1619716876       -0.3557884018        0.0344174452
 H         -1.3375767653        1.3072132345        1.2861055315
 H         -0.0000572378        2.8067244373       -0.1381826199
 H          2.1416064863        1.4471875707       -0.2843041334
 C          2.4085266653       -1.0780453231       -0.0419667225
 H          2.9694857897       -0.7691452446       -0.9257373605
 H          3.0121585798       -0.8646314988        0.8411764152
 H          2.2306119238       -2.1491360153       -0.0954281582
 C         -2.4085395103       -1.0780203648       -0.0420775378
 H         -2.2305254021       -2.1490567759       -0.0973530643
 H         -3.0114763105       -0.8659883487        0.8419532977
 H         -2.9702415973       -0.7677600855       -0.9249634295
  21
  -24.9585611100000       5.283611878841001E-002 !mtd7
 C          1.2434265916        1.0835354797        0.2179056757
 C         -0.0000140508       -0.9531356283       -0.0543052757
 C         -1.2432601389        1.0834309558        0.2185182088
 C         -0.0000845597        1.7425784627       -0.3654079938
 H          1.3380746040        1.3077836053        1.2855552335
 H          0.0000139525       -2.0258912966       -0.2055950779
 H         -2.1418323675        1.4474095545       -0.2828500447
 H         -0.0003673136        1.6248689799       -1.4503762890
 N          1.1619551970       -0.3557884397        0.0347041211
 N         -1.1620020833       -0.3557891068        0.0344890180
 H         -1.3370093923        1.3071437704        1.2863615569
 H         -0.0000644815        2.8066940976       -0.1387209599
 H          2.1416457583        1.4471464991       -0.2843727410
 C          2.4085371354       -1.0779843478       -0.0421805845
 H          2.2306660746       -2.1491318706       -0.0951234337
 H          2.9689252953       -0.7693665172       -0.9264209862
 H          3.0126766904       -0.8641866409        0.8405407871
 C         -2.4085776317       -1.0779710041       -0.0423976270
 H         -2.9702340410       -0.7671194660       -0.9250191984
 H         -2.2306363422       -2.1489129692       -0.0984731057
 H         -3.0115327392       -0.8666002487        0.8416915607
  21
  -24.9585611000000       5.283555968223851E-002 !md1
 C          1.2433797841        1.0834556554        0.2180334198
 C         -0.0000092415       -0.9531551458       -0.0544016360
 C         -1.2433349912        1.0834741810        0.2182020280
 C         -0.0000583041        1.7427234028       -0.3652801353
 H          1.3380195519        1.3073609216        1.2857546976
 H          0.0000624245       -2.0258753984       -0.2059226488
 H         -2.1416640133        1.4472158172       -0.2837813233
 H         -0.0003276872        1.6252936196       -1.4502833622
 N          1.1619760257       -0.3558064999        0.0344308772
 N         -1.1619616213       -0.3558351996        0.0347706505
 H         -1.3376677878        1.3075407918        1.2859076231
 H         -0.0001325870        2.8068013526       -0.1383542270
 H          2.1416197718        1.4472451352       -0.2841064517
 C          2.4085462414       -1.0780119320       -0.0420909661
 H          3.0119899085       -0.8650181470        0.8412844485
 H          2.2306938627       -2.1490869751       -0.0961680784
 H          2.9697238021       -0.7687002017       -0.9256076442
 C         -2.4085367641       -1.0779794403       -0.0423314283
 H         -2.9689921810       -0.7690719065       -0.9264128639
 H         -2.2307302816       -2.1491041538       -0.0956840744
 H         -3.0126367588       -0.8645010777        0.8404679954
  21
  -24.9585611000000       5.283555968223851E-002 !mtd13
 C          1.2432111008        1.0834324897        0.2187550020
 C          0.0000162635       -0.9530958696       -0.0545553650
 C         -1.2433790469        1.0835569112        0.2178281261
 C          0.0001491393        1.7424844352       -0.3655375000
 H          1.3367741511        1.3071618310        1.2866181706
 H         -0.0000487312       -2.0258595106       -0.2057787572
 H         -2.1415665574        1.4472422583       -0.2844487319
 H          0.0004750601        1.6245335457       -1.4505008837
 N          1.1619824719       -0.3558050565        0.0347621395
 N         -1.1619608359       -0.3557630248        0.0345094627
 H         -1.3379995297        1.3078086539        1.2854818396
 H          0.0000861971        2.8066489138       -0.1391048518
 H          2.1418835467        1.4473600740       -0.2824562582
 C          2.4085605380       -1.0779232966       -0.0425642548
 H          3.0121495327       -0.8656722897        0.8408922713
 H          2.2306195678       -2.1489480230       -0.0975616147
 H          2.9694632922       -0.7677476751       -0.9259551182
 C         -2.4085375426       -1.0780165837       -0.0419019263
 H         -3.0118633839       -0.8651324174        0.8416084789
 H         -2.9698714792       -0.7684835522       -0.9252363282
 H         -2.2306460643       -2.1490171867       -0.0961604587
  21
  -24.9585610900000       5.283500058198341E-002 !mtd8
 C          1.2431697442        1.0809560675       -0.2304316146
 C         -0.0000058624       -0.9524961178        0.0648498389
 C         -1.2435036890        1.0812029858       -0.2287715752
 C          0.0002760289        1.7464994116        0.3467871666
 H          2.1418894465        1.4503230493        0.2667115412
 H          0.0000765010       -2.0236089546        0.2274073357
 H         -1.3389096364        1.2942190566       -1.2986403675
 H          0.0001670864        2.8080758937        0.1084421173
 N          1.1619655270       -0.3561920443       -0.0307923286
 N         -1.1619527986       -0.3561067137       -0.0304668047
 H         -2.1413725885        1.4500539349        0.2702945295
 H          0.0010267529        1.6407201680        1.4329832014
 H          1.3366236661        1.2931045886       -1.3006535885
 C          2.4085911043       -1.0774163776        0.0538323991
 H          2.2308096154       -2.1477690581        0.1204968797
 H          3.0117969960       -0.8747427743       -0.8321001335
 H          2.9698914458       -0.7576854517        0.9335013780
 C         -2.4085205563       -1.0775999894        0.0528844352
 H         -3.0111827093       -0.8745245621       -0.8333463638
 H         -2.2305738730       -2.1479749174        0.1189670868
 H         -2.9705002624       -0.7585780683        0.9323594858
  21
  -24.9585610900000       5.283500058198341E-002 !mtd4
 C          1.2434066880        1.0834886635        0.2178992805
 C         -0.0000145730       -0.9531049789       -0.0548294367
 C         -1.2433125654        1.0834276586        0.2183219171
 C         -0.0000601782        1.7428311813       -0.3651692453
 H          1.3382392248        1.3074157348        1.2856061715
 H          0.0000203159       -2.0258540712       -0.2061535580
 H         -2.1416891440        1.4473754913       -0.2834337161
 H         -0.0002569543        1.6257933076       -1.4502159192
 N          1.1619479784       -0.3557647265        0.0342337537
 N         -1.1619732168       -0.3557859197        0.0342548109
 H         -1.3375796797        1.3070586891        1.2861414839
 H         -0.0000250966        2.8068223853       -0.1378613609
 H          2.1415461924        1.4472551549       -0.2844262435
 C          2.4084999534       -1.0781150068       -0.0416940951
 H          2.9699982026       -0.7690808957       -0.9250508121
 H          3.0116342255       -0.8649595670        0.8418468323
 H          2.2305302376       -2.1491979758       -0.0954951521
 C         -2.4085174717       -1.0780860795       -0.0419167129
 H         -3.0112605892       -0.8660109921        0.8421319493
 H         -2.9703404506       -0.7679691100       -0.9246763106
 H         -2.2304878311       -2.1490357685       -0.0971364504
  21
  -24.9585610800000       5.283444148764466E-002 !mtd3
 C          1.2434392943        1.0834739587        0.2179637459
 C         -0.0000001004       -0.9531450219       -0.0541571089
 C         -1.2434285558        1.0834797611        0.2182987279
 C         -0.0000829382        1.7425985459       -0.3652833323
 H          1.3379179488        1.3074170815        1.2856826767
 H         -0.0000410616       -2.0259327387       -0.2052361154
 H         -2.1418280352        1.4471694639       -0.2836090984
 H         -0.0002518330        1.6252671728       -1.4502888130
 N          1.1619932572       -0.3557754727        0.0343693437
 N         -1.1619653354       -0.3557972994        0.0348001958
 H         -1.3376938354        1.3074990440        1.2860278776
 H         -0.0001032666        2.8066400744       -0.1382524596
 H          2.1417362646        1.4472572826       -0.2840789688
 C          2.4085551163       -1.0780315297       -0.0421419433
 H          2.2306252326       -2.1490498640       -0.0964576489
 H          2.9697315104       -0.7684913893       -0.9255421576
 H          3.0119691222       -0.8652783526        0.8412996045
 C         -2.4085040923       -1.0779384058       -0.0425121336
 H         -3.0134282486       -0.8632413411        0.8393504931
 H         -2.9680376107       -0.7701997356       -0.9275444363
 H         -2.2307306700       -2.1490876172       -0.0942493608
  21
  -24.9585610800000       5.283444148764466E-002 !mtd4
 C          1.2434133696        1.0834546800        0.2181908061
 C         -0.0000127110       -0.9530886013       -0.0545480962
 C         -1.2434328661        1.0835014518        0.2181507431
 C          0.0000041906        1.7425458025       -0.3653157593
 H          1.3376670625        1.3073171393        1.2859575840
 H          0.0000400713       -2.0258485311       -0.2058246649
 H         -2.1417516833        1.4472293133       -0.2838748193
 H         -0.0000771925        1.6250961297       -1.4503208328
 N          1.1619893738       -0.3557783308        0.0344439400
 N         -1.1619721705       -0.3557600358        0.0345837152
 H         -1.3378846262        1.3075271935        1.2858684172
 H          0.0000257248        2.8066036635       -0.1383993749
 H          2.1418050576        1.4472799753       -0.2836376054
 C          2.4085492662       -1.0779843935       -0.0421150027
 H          2.9692784550       -0.7693559638       -0.9261651026
 H          3.0124357676       -0.8642690062        0.8408079388
 H          2.2306730495       -2.1491191211       -0.0951870510
 C         -2.4085358225       -1.0780046278       -0.0421359926
 H         -2.9707828432       -0.7665148166       -0.9241754584
 H         -2.2304981943       -2.1488962464       -0.0991652885
 H         -3.0109960547       -0.8674039006        0.8424895758
  21
  -24.9585610700000       5.283388239922217E-002 !md1
 C          1.2435279775        1.0836022173        0.2173333919
 C         -0.0000016210       -0.9530848594       -0.0544683233
 C         -1.2431748602        1.0834091532        0.2191237060
 C         -0.0003047140        1.7425305589       -0.3654541771
 H          1.3387617959        1.3081377840        1.2848658560
 H          0.0000937407       -2.0258255712       -0.2057754601
 H         -2.1420229865        1.4473959091       -0.2817192022
 H         -0.0011387244        1.6247267280       -1.4504128477
 N          1.1619739254       -0.3557033788        0.0344604911
 N         -1.1619909717       -0.3558237002        0.0349336893
 H         -1.3363374665        1.3070147772        1.2870391528
 H         -0.0001822182        2.8066530469       -0.1388549596
 H          2.1414656006        1.4471625447       -0.2855151606
 C          2.4084643360       -1.0781206492       -0.0416810791
 H          3.0110708984       -0.8664856321        0.8425983287
 H          2.2303735333       -2.1490500896       -0.0974108854
 H          2.9705976449       -0.7677229464       -0.9241644691
 C         -2.4085214879       -1.0779267135       -0.0428889198
 H         -2.2306138925       -2.1487928379       -0.0986566797
 H         -3.0122807235       -0.8662968527        0.8405155869
 H         -2.9694267375       -0.7672538543       -0.9261061032
  21
  -24.9585610700000       5.283388239922217E-002 !mtd8
 C          1.2431163380        1.0809976798       -0.2303942828
 C          0.0000226451       -0.9525233267        0.0645501402
 C         -1.2434120878        1.0811974732       -0.2289775975
 C          0.0002211525        1.7464661126        0.3469249375
 H          2.1418950590        1.4503811860        0.2665972305
 H          0.0000046548       -2.0236141446        0.2271948409
 H         -1.3384581925        1.2941347023       -1.2989094605
 H          0.0000490173        2.8081311515        0.1089658299
 N          1.1619788833       -0.3561776365       -0.0308193376
 N         -1.1619487960       -0.3561142293       -0.0304919649
 H         -2.1414262954        1.4501666846        0.2697449279
 H          0.0008624298        1.6402861024        1.4330855202
 H          1.3363767567        1.2931177069       -1.3006372292
 C          2.4085589470       -1.0774333624        0.0539343919
 H          2.9697663945       -0.7576881848        0.9336378054
 H          2.2307502337       -2.1477508643        0.1206235110
 H          3.0118929703       -0.8748675053       -0.8319284490
 C         -2.4084982794       -1.0775500316        0.0530995945
 H         -2.9708887723       -0.7574308529        0.9319339345
 H         -3.0108133020       -0.8756178275       -0.8336520547
 H         -2.2305329341       -2.1478330974        0.1206521620
  21
  -24.9585610600000       5.283332331691453E-002 !mtd8
 C          1.2435479102        1.0812682035       -0.2290392128
 C         -0.0000031004       -0.9524537344        0.0642952307
 C         -1.2432524803        1.0810444628       -0.2302901151
 C         -0.0001829270        1.7461330864        0.3471238616
 H          2.1416561559        1.4499348094        0.2697681785
 H         -0.0001239027       -2.0235594674        0.2269034656
 H         -1.3364444071        1.2935010943       -1.3004711169
 H         -0.0001291644        2.8078282279        0.1094220089
 N          1.1619660314       -0.3561318757       -0.0311608501
 N         -1.1620191438       -0.3561478629       -0.0311403604
 H         -2.1420574809        1.4502976131        0.2667892285
 H         -0.0007718736        1.6396858062        1.4332600397
 H          1.3385211205        1.2945413155       -1.2988980649
 C          2.4085074152       -1.0774698236        0.0536252191
 H          3.0133058370       -0.8720832318       -0.8305838417
 H          2.9682080897       -0.7604311396        0.9353033063
 H          2.2306404829       -2.1480390594        0.1166413644
 C         -2.4085851912       -1.0773878299        0.0541989524
 H         -2.9686381309       -0.7588090824        0.9350727229
 H         -3.0130472378       -0.8735249950       -0.8306179069
 H         -2.2307582773       -2.1478548808        0.1192194054
  21
  -24.9585610600000       5.283332331691453E-002 !mtd10
 C          1.2435696577        1.0812471732       -0.2287161618
 C         -0.0000050569       -0.9524827907        0.0647082205
 C         -1.2431671616        1.0809551651       -0.2305680433
 C         -0.0002939185        1.7464069757        0.3468874535
 H          2.1414508917        1.4499364240        0.2704866111
 H          0.0000252407       -2.0236147777        0.2270734498
 H         -1.3363114553        1.2929320474       -1.3008866290
 H         -0.0002569595        2.8080398093        0.1088182083
 N          1.1619417119       -0.3561014609       -0.0307485658
 N         -1.1619973725       -0.3561503584       -0.0306374583
 H         -2.1420309507        1.4504241485        0.2663008569
 H         -0.0010642850        1.6403489028        1.4330746344
 H          1.3391009561        1.2944801870       -1.2985386065
 C          2.4084944692       -1.0775791724        0.0530557366
 H          2.9699413613       -0.7588207441        0.9330308387
 H          2.2305002252       -2.1480162064        0.1186875871
 H          3.0116883536       -0.8741748129       -0.8328027680
 C         -2.4085891131       -1.0774227391        0.0538691663
 H         -3.0116903495       -0.8748824202       -0.8322326912
 H         -2.2306422086       -2.1477904698        0.1206010689
 H         -2.9700430939       -0.7576468421        0.9335523993
  21
  -24.9585610500000       5.283276424032442E-002 !mtd9
 C          1.2432333686        1.0810592672       -0.2299469187
 C          0.0000156771       -0.9523917402        0.0649549973
 C         -1.2433535520        1.0811622460       -0.2296046471
 C          0.0000196107        1.7462324418        0.3470784275
 H          2.1418352294        1.4504365797        0.2674302191
 H          0.0000159360       -2.0235079041        0.2274819723
 H         -1.3377290335        1.2938990803       -1.2996423782
 H         -0.0000596372        2.8079207708        0.1093559232
 N          1.1620113419       -0.3560741879       -0.0303150597
 N         -1.1619572946       -0.3561202074       -0.0308167024
 H         -2.1416871577        1.4501748326        0.2684965089
 H          0.0001816756        1.6398305727        1.4332453891
 H          1.3369784765        1.2932117217       -1.3001642254
 C          2.4085665780       -1.0775185093        0.0532646520
 H          3.0111671771       -0.8747161496       -0.8330497578
 H          2.9705175477       -0.7581012749        0.9326203224
 H          2.2305508949       -2.1478106642        0.1197575720
 C         -2.4084998847       -1.0774620900        0.0533375841
 H         -3.0119915137       -0.8737033509       -0.8321865765
 H         -2.2306623180       -2.1478517976        0.1185750676
 H         -2.9696514524       -0.7588528095        0.9335261253
  21
  -24.9585610500000       5.283276424032442E-002 !mtd13
 C          1.2434804258        1.0835445534        0.2176444311
 C         -0.0000223263       -0.9531531400       -0.0543219655
 C         -1.2431999119        1.0833543189        0.2185599046
 C         -0.0001198748        1.7428493150       -0.3651731803
 H          1.3387341004        1.3077894687        1.2852427981
 H          0.0001953916       -2.0259647419       -0.2053023765
 H         -2.1416796158        1.4474806890       -0.2828442189
 H         -0.0005341015        1.6257969758       -1.4502154599
 N          1.1619436220       -0.3557965906        0.0344781789
 N         -1.1620170815       -0.3558391261        0.0341537297
 H         -1.3371066788        1.3067921149        1.2864561450
 H         -0.0001320218        2.8068512616       -0.1378691715
 H          2.1414475999        1.4471154131       -0.2851127090
 C          2.4084715487       -1.0780515537       -0.0418898336
 H          2.2306405016       -2.1492168452       -0.0947276131
 H          2.9691365315       -0.7696246082       -0.9260578705
 H          3.0124454233       -0.8640942636        0.8409248357
 C         -2.4085734996       -1.0780343164       -0.0422270858
 H         -2.2307022400       -2.1489963096       -0.0981420631
 H         -3.0113852164       -0.8665159219        0.8419242550
 H         -2.9704721328       -0.7674258666       -0.9247600462
  21
  -24.9585610300000       5.283164610489238E-002 !mtd7
 C          1.2434756874        1.0811214323       -0.2297404512
 C         -0.0000160865       -0.9524728539        0.0647099654
 C         -1.2434165581        1.0810420209       -0.2293081508
 C          0.0000882665        1.7465041155        0.3466587867
 H          2.1417901427        1.4500640955        0.2684746451
 H          0.0003797476       -2.0235461253        0.2274912235
 H         -1.3380187093        1.2933888571       -1.2993923173
 H         -0.0000342414        2.8080226316        0.1080542516
 N          1.1619430113       -0.3561253219       -0.0311715800
 N         -1.1620070500       -0.3561339256       -0.0300735927
 H         -2.1416247504        1.4502815946        0.2688917519
 H          0.0002266954        1.6410445965        1.4328931262
 H          1.3379694930        1.2939157577       -1.2997445029
 C          2.4085063925       -1.0774994980        0.0537672269
 H          2.2304871328       -2.1478180525        0.1206159968
 H          3.0117802798       -0.8750879890       -0.8321619493
 H          2.9697306805       -0.7576374680        0.9334596143
 C         -2.4085729111       -1.0775871207        0.0530148199
 H         -2.9707597294       -0.7586443679        0.9324229711
 H         -3.0111508952       -0.8744935697       -0.8332833726
 H         -2.2306580081       -2.1479746705        0.1190850628
  21
  -24.9585610100000       5.283052799332282E-002 !mtd10
 C          1.2435066105        1.0812353648       -0.2290613932
 C         -0.0000059583       -0.9524516173        0.0647075776
 C         -1.2432143701        1.0810037894       -0.2302988666
 C         -0.0001831995        1.7463246089        0.3469559253
 H          2.1415892903        1.4500413261        0.2696744182
 H          0.0000591012       -2.0235391504        0.2273988185
 H         -1.3366051557        1.2930946737       -1.3005390649
 H         -0.0001755768        2.8079587057        0.1089760934
 N          1.1619515042       -0.3560859380       -0.0307706796
 N         -1.1620088548       -0.3561457247       -0.0305941298
 H         -2.1419448089        1.4504281720        0.2667794453
 H         -0.0007418815        1.6401977589        1.4331267270
 H          1.3384990968        1.2942270916       -1.2989729812
 C          2.4085207232       -1.0775555573        0.0532131836
 H          2.9684288814       -0.7613028422        0.9350302443
 H          2.2306417903       -2.1481670354        0.1152899651
 H          3.0130838460       -0.8713907811       -0.8309836956
 C         -2.4085913855       -1.0774453499        0.0537050585
 H         -2.2305740469       -2.1475869797        0.1232975445
 H         -2.9713864688       -0.7557066498        0.9316938549
 H         -3.0104634192       -0.8771597920       -0.8337238270
  21
  -24.9585610000000       5.282996894631253E-002 !mtd8
 C          1.2430582659        1.0808772708       -0.2311783246
 C          0.0000270020       -0.9524655389        0.0646581519
 C         -1.2437454244        1.0813441303       -0.2280663831
 C          0.0004884473        1.7463450176        0.3468559377
 H          2.1422485445        1.4505409561        0.2648722625
 H         -0.0000416975       -2.0235693610        0.2272375770
 H         -1.3400548240        1.2948544839       -1.2977633896
 H          0.0003366034        2.8079585772        0.1087408749
 N          1.1620286855       -0.3561667452       -0.0308207001
 N         -1.1619401106       -0.3560487560       -0.0305260400
 H         -2.1412884936        1.4498824557        0.2718736402
 H          0.0019205919        1.6403288426        1.4330363873
 H          1.3353634333        1.2925139624       -1.3016037405
 C          2.4086239071       -1.0773778232        0.0542684501
 H          2.2307407066       -2.1475740220        0.1231884378
 H          3.0113060442       -0.8766033928       -0.8324618720
 H          2.9706016985       -0.7560701843        0.9329058264
 C         -2.4084788513       -1.0776277799        0.0526510285
 H         -2.2304446909       -2.1480107350        0.1171291398
 H         -2.9699423355       -0.7598427848        0.9329518254
 H         -3.0116588728       -0.8733486805       -0.8329217539
  21
  -24.9585610000000       5.282996894631253E-002 !mtd11
 C          1.2434560206        1.0812470890       -0.2289773557
 C         -0.0000224175       -0.9524983801        0.0640687945
 C         -1.2432438747        1.0810916447       -0.2304237447
 C         -0.0002232642        1.7461453216        0.3472290562
 H          2.1414579291        1.4498708112        0.2698650092
 H         -0.0000244921       -2.0235756371        0.2268187717
 H         -1.3364300442        1.2937118403       -1.3006174453
 H         -0.0001175823        2.8079166958        0.1098925736
 N          1.1619793343       -0.3561694165       -0.0311987299
 N         -1.1619858324       -0.3561281576       -0.0314432046
 H         -2.1421240338        1.4502741201        0.2666802957
 H         -0.0008112199        1.6392422846        1.4333363897
 H          1.3385071590        1.2946710229       -1.2987126585
 C          2.4085517825       -1.0774722178        0.0537151644
 H          3.0136629329       -0.8714760754       -0.8301645706
 H          2.9679245105       -0.7609467214        0.9358144983
 H          2.2307823474       -2.1481411274        0.1159579480
 C         -2.4085584922       -1.0773555127        0.0545191906
 H         -2.2305940418       -2.1476879841        0.1215079964
 H         -2.9691081907       -0.7572604953        0.9345886887
 H         -3.0125553718       -0.8751448616       -0.8310116694
  21
  -24.9567968500000       8.168327648788231E-003 !gc
 C          1.2451735230        1.0792397514       -0.2436656379
 C         -0.0077545559       -0.9425388943        0.0691230980
 C         -1.2444969023        1.0965456370       -0.2134743810
 C          0.0120906205        1.7535520090        0.3442580819
 H          2.1513656639        1.4477766990        0.2402627940
 H         -0.0182790398       -2.0137963876        0.2316987581
 H         -1.3578248793        1.3147857499       -1.2807641766
 H          0.0155202411        2.8145665060        0.1032384208
 N          1.1578786623       -0.3555906059       -0.0328795112
 N         -1.1690826554       -0.3410268467       -0.0200334425
 H         -2.1273002828        1.4741706876        0.3053643911
 H          0.0246883201        1.6505076683        1.4306425561
 H          1.3265622962        1.2835562286       -1.3163410068
 C          2.3998686082       -1.0836399392        0.0580903077
 H          3.0052063395       -0.8903832191       -0.8284803548
 H          2.9622186271       -0.7613654378        0.9361771545
 H          2.2152598859       -2.1524004589        0.1317452148
 C         -2.3951789227       -1.1112808023        0.0381392614
 H         -2.4609434148       -1.7996758941       -0.8052931135
 H         -2.4490619495       -1.6846090627        0.9639427865
 H         -3.2473326388       -0.4389938987       -0.0021528158
  21
  -24.9567968500000       8.168327648788231E-003 !gc
 C          1.2450402208        1.0791238548       -0.2442957562
 C         -0.0077544354       -0.9425371364        0.0691940426
 C         -1.2446598912        1.0966273558       -0.2127675863
 C          0.0123018615        1.7536058574        0.3441660345
 H          2.1515339314        1.4479130875        0.2388623062
 H         -0.0183076813       -2.0138004279        0.2317447152
 H         -1.3589473450        1.3152278537       -1.2798734521
 H          0.0156781593        2.8145785563        0.1029559810
 N          1.1578872341       -0.3556133863       -0.0328538695
 N         -1.1690608495       -0.3410015336       -0.0199107781
 H         -2.1270696512        1.4739791759        0.3069709739
 H          0.0255053913        1.6507582754        1.4305637087
 H          1.3256787630        1.2829942136       -1.3171137968
 C          2.3998920031       -1.0835944708        0.0583492253
 H          3.0049731768       -0.8911795045       -0.8285828328
 H          2.9624961255       -0.7604964809        0.9359682476
 H          2.2152913424       -2.1522806556        0.1330766670
 C         -2.3951225560       -1.1113397610        0.0377210496
 H         -3.2473743129       -0.4391703024       -0.0024455003
 H         -2.4606027743       -1.7993425500       -0.8061027754
 H         -2.4491365283       -1.6851718550        0.9631913934
  21
  -24.9567965300000       8.165562138734438E-003 !gc
 C          1.2450624408        1.0791492908       -0.2441062760
 C         -0.0077408086       -0.9425481204        0.0691508302
 C         -1.2446152046        1.0966159660       -0.2129905845
 C          0.0122267515        1.7535881872        0.3442020200
 H          2.1514808644        1.4479290584        0.2391968348
 H         -0.0182862341       -2.0138066546        0.2317284669
 H         -1.3586594388        1.3152007251       -1.2801294786
 H          0.0156209187        2.8145781329        0.1030670079
 N          1.1579041969       -0.3555920206       -0.0327084520
 N         -1.1690507400       -0.3410359881       -0.0201140196
 H         -2.1271195608        1.4739825785        0.3065634527
 H          0.0252580842        1.6506654964        1.4305933203
 H          1.3258589460        1.2830641281       -1.3169052537
 C          2.3999007655       -1.0836201643        0.0582045114
 H          2.2152308860       -2.1521913696        0.1343996455
 H          3.0042214496       -0.8923549835       -0.8295072799
 H          2.9633401808       -0.7595354380        0.9349131680
 C         -2.3951629440       -1.1113000243        0.0379393921
 H         -2.4595065200       -1.8016401527       -0.8039970974
 H         -2.4504789453       -1.6825089803        0.9649835337
 H         -3.2473060068       -0.4391845317       -0.0052789812
  21
  -24.9567964600000       8.164957308245752E-003 !mtd1
 C          1.2452956414        1.0815106670        0.2324467247
 C         -0.0077975752       -0.9431735345       -0.0597942240
 C         -1.2446536450        1.0987851919        0.2026324551
 C          0.0120461093        1.7499751555       -0.3617678764
 H          1.3268744246        1.2961521818        1.3030741531
 H         -0.0185495833       -2.0160448229       -0.2114332629
 H         -2.1273643878        1.4707933841       -0.3204784205
 H          0.0244539000        1.6362718051       -1.4471020633
 N          1.1579363532       -0.3552625946        0.0353942056
 N         -1.1690381934       -0.3407636656        0.0242305623
 H         -1.3583439029        1.3280626294        1.2675792798
 H          0.0156179560        2.8133044686       -0.1311879514
 H          2.1513773321        1.4454592609       -0.2552333300
 C          2.3999144922       -1.0841396232       -0.0481932268
 H          2.9635963077       -0.7685593966       -0.9278398156
 H          3.0039087764       -0.8842751304        0.8378463260
 H          2.2152953312       -2.1533908006       -0.1140005739
 C         -2.3951830019       -1.1116682093       -0.0255590321
 H         -3.2473151825       -0.4391338610        0.0120384764
 H         -2.4512207715       -1.6917001042       -0.9470677434
 H         -2.4587131224       -1.7940077126        0.8230186413
  21
  -24.9567964200000       8.164611710933913E-003 !gc
 C          1.2450411069        1.0791192468       -0.2443017859
 C         -0.0077506963       -0.9425508410        0.0690900292
 C         -1.2446777228        1.0966486633       -0.2127301700
 C          0.0123074100        1.7535935967        0.3441862412
 H          2.1515396715        1.4479181071        0.2388374866
 H         -0.0182938356       -2.0138177288        0.2316353988
 H         -1.3590802521        1.3154044142       -1.2797888237
 H          0.0156779934        2.8145712512        0.1029928039
 N          1.1578947841       -0.3556098255       -0.0328408214
 N         -1.1690469097       -0.3410347931       -0.0201601764
 H         -2.1270384326        1.4738730209        0.3071859186
 H          0.0255440971        1.6507347954        1.4305829367
 H          1.3256542956        1.2829825746       -1.3171237030
 C          2.3999017651       -1.0835849871        0.0584104256
 H          2.9625274154       -0.7603616884        0.9359693684
 H          2.2153039617       -2.1522602641        0.1332990396
 H          3.0049615876       -0.8912955960       -0.8285641453
 C         -2.3951406724       -1.1113213437        0.0378884446
 H         -3.2473497567       -0.4393938654       -0.0068533843
 H         -2.4586831613       -1.8026837526       -0.8033089584
 H         -2.4511528087       -1.6814712335        0.9655367807
  21
  -24.9567963400000       8.163920560193791E-003 !gc
 C          1.2449972537        1.0791096028       -0.2443741158
 C         -0.0077351123       -0.9425552961        0.0690736158
 C         -1.2446727879        1.0966705913       -0.2127270435
 C          0.0123105244        1.7535553587        0.3442439619
 H          2.1515647847        1.4479824662        0.2385664971
 H         -0.0182848288       -2.0138156091        0.2316551462
 H         -1.3590683915        1.3155144581       -1.2797726685
 H          0.0156787183        2.8145630037        0.1031880809
 N          1.1579158533       -0.3555995466       -0.0327453805
 N         -1.1690366806       -0.3410471505       -0.0202655256
 H         -2.1270257678        1.4738605336        0.3072183385
 H          0.0255911302        1.6505508644        1.4306250379
 H          1.3254049171        1.2828773952       -1.3172308705
 C          2.3999205664       -1.0835824622        0.0583930420
 H          2.9632770870       -0.7593041275        0.9350839711
 H          2.2152685581       -2.1521417696        0.1347978325
 H          3.0043096399       -0.8924859434       -0.8293084491
 C         -2.3951608447       -1.1112987199        0.0379328485
 H         -2.4584786440       -1.8032941420       -0.8027105608
 H         -2.4515149057       -1.6806959325        0.9660409119
 H         -3.2472891776       -0.4393195940       -0.0076044173
