17
Properties=species:S:1:pos:R:3 energy=-8347.217610677084 free_energy=-8347.217610677084 pbc="F F F"
C       -0.00886200       0.76529200      -1.21716200
C        0.00885900      -0.76529200      -1.21716200
N       -0.13269000       1.06525400       0.21109600
N        0.13268500      -1.06525400       0.21109600
C       -0.00000100       0.00000000       1.01879600
H       -0.85171500       1.18971500      -1.78604600
H        0.85171300      -1.18971500      -1.78604400
C       -0.21382000       2.43336400       0.65268400
C        0.21382200      -2.43336400       0.65268400
H       -1.08721600       2.93955300       0.20756200
H        1.08722400      -2.93954600       0.20756600
H       -0.31322400       2.44980400       1.74571100
H        0.31322100      -2.44980400       1.74571100
H        0.68883400       3.00399900       0.36995600
H       -0.68882700      -3.00400600       0.36995100
H        0.92263000       1.20051700      -1.62147200
H       -0.92263300      -1.20051700      -1.62147300
