  33
        -39.60106262
 N         -1.0687501593        0.2128634032       -0.0005826550
 C         -0.0000002481       -0.6254123285       -0.0009796809
 N          1.0687421514        0.2128685912       -0.0008012782
 C          0.6754996855        1.5294655622       -0.0002686180
 C         -0.6755171306        1.5294602716       -0.0001904809
 C         -2.4559781777       -0.2221134510        0.0000353271
 C          2.4559758371       -0.2220987786        0.0000606554
 C         -3.1527315521        0.3103923741       -1.2583305607
 C         -3.1519596930        0.3119823645        1.2581671914
 C         -2.4982317012       -1.7498453643        0.0010874305
 C          2.4982698396       -1.7498253940       -0.0028797089
 C          3.1505170964        0.3087697709        1.2603612511
 C          3.1541570073        0.3136072884       -1.2561487123
 H          1.3593947867        2.3541003207        0.0000856707
 H         -1.3594295375        2.3540782556        0.0000315475
 H         -3.5300624683       -2.0896620996        0.0019423234
 H         -1.9911787600       -2.1374440969        0.8791520190
 H         -1.9922214727       -2.1386503126       -0.8770356337
 H         -3.1606254939        1.3979422131       -1.2721712884
 H         -4.1802500715       -0.0408381938       -1.2912405259
 H         -2.6349577296       -0.0420291715       -2.1478767060
 H          2.6377662881       -0.0369761717       -2.1472170264
 H          4.1818722268       -0.0371030773       -1.2884773621
 H          3.1616781833        1.4011700099       -1.2675182248
 H          2.6308146050       -0.0443711947        2.1485022216
 H          3.1587588817        1.3962964607        1.2753294080
 H          4.1778305120       -0.0428920716        1.2949895289
 H         -3.1606072174        1.3995364241        1.2702481404
 H         -2.6331169554       -0.0386098555        2.1478183929
 H         -4.1792084489       -0.0398849592        1.2926518628
 H          3.5301170181       -2.0895869595       -0.0029147394
 H          1.9923285571       -2.1363150717       -0.8820700264
 H          1.9911969030       -2.1397935999        0.8741096948
  33
        -39.60038348
 N         -1.0646738403       -0.1426230289       -0.1743480987
 C          0.0088066833        0.4244298340        0.4317126300
 N          1.0739099940       -0.1202867218       -0.2157797203
 C          0.6716705902       -1.0091534657       -1.1816692434
 C         -0.6798448953       -1.0176983171       -1.1612698551
 C         -2.4487493503        0.1391112318        0.1697744986
 C          2.4510428137        0.1532397755        0.1696568196
 C         -3.1555629393        0.7513145934       -1.0459959131
 C         -2.4802781732        1.1292879639        1.3335644070
 C         -3.1417254022       -1.1643547360        0.5859895763
 C          3.3962291749       -0.0401670328       -1.0190779420
 C          2.8334433625       -0.8053262300        1.3052530093
 C          2.5389674854        1.6006013725        0.6594839854
 H          1.3450203530       -1.5596285921       -1.8055155267
 H         -1.3685828132       -1.5708949205       -1.7674121516
 H         -4.1629176441       -0.9597155479        0.8950738836
 H         -2.6099028840       -1.6195324988        1.4188481099
 H         -3.1681718167       -1.8756623254       -0.2362988389
 H         -2.6450365805        1.6613701491       -1.3537229246
 H         -4.1836979755        0.9963190486       -0.7946625443
 H         -3.1617978400        0.0589871617       -1.8849398128
 H          1.8207960310        1.7593622948        1.4575349435
 H          2.3052204801        2.2855322744       -0.1517213986
 H          3.5405372820        1.8115945587        1.0228027253
 H          2.1776015694       -0.6439251003        2.1572073516
 H          3.8614960451       -0.6365665007        1.6130285322
 H          2.7310866439       -1.8393527285        0.9803748103
 H         -1.9739348971        2.0485292387        1.0561836855
 H         -1.9686343477        0.7106011120        2.1947278617
 H         -3.5096972633        1.3513414425        1.6003118074
 H          4.3841057757        0.3288159826       -0.7571475333
 H          3.0392303431        0.5144669581       -1.8846439532
 H          3.4904343927       -1.0900178418       -1.2869483555
  33
        -39.59959857
 N         -1.0713019736        0.2681492404       -0.0303535699
 C         -0.0032064783       -0.5725659272       -0.0173259556
 N          1.0688884060        0.2611378994        0.0247924796
 C          0.6778066288        1.5767296253        0.0451457207
 C         -0.6741253874        1.5812419081       -0.0027276861
 C         -2.4369019989       -0.2253394582       -0.1444649353
 C          2.4356479942       -0.2279207612        0.1387112427
 C         -3.4466928842        0.8475196911        0.2662427626
 C         -2.5838638506       -1.4432790710        0.7723372784
 C         -2.6764098929       -0.6394515990       -1.6020970512
 C          2.7185501667       -0.5240359948        1.6174456259
 C          3.4315370400        0.8086157268       -0.3871056228
 C          2.5588308002       -1.5142766680       -0.6818728375
 H          1.3567786767        2.4029339636        0.0881830607
 H         -1.3477803457        2.4126674163       -0.0159386314
 H         -1.9639057397       -1.4108609593       -1.8826663224
 H         -2.5430773931        0.2133801978       -2.2653656914
 H         -3.6848367707       -1.0238634933       -1.7262177348
 H         -4.4412757569        0.4107118683        0.2940004809
 H         -3.4607875054        1.6715871151       -0.4436811808
 H         -3.2141788422        1.2354629763        1.2560820516
 H          2.3951775357       -1.3039230308       -1.7359379388
 H          1.8085529688       -2.2271880187       -0.3549217085
 H          3.5483933388       -1.9441713985       -0.5569294355
 H          3.1481419511        1.1394990193       -1.3843814098
 H          4.4205744354        0.3617685391       -0.4409539010
 H          3.4895020271        1.6739538449        0.2692506794
 H         -2.4505269868       -1.1499773015        1.8110222037
 H         -1.8238331828       -2.1770440349        0.5222550011
 H         -3.5688520814       -1.8855219832        0.6547498684
 H          3.7340951564       -0.8885734375        1.7432951644
 H          2.0234512047       -1.2778079743        1.9787484175
 H          2.5939602595        0.3769920339        2.2155830868
