  14
        -14.00507668
 C         -1.5433368426        0.5838424187       -0.1376598043
 C         -0.7326140622       -0.6285096624        0.3103242979
 H         -1.1677636337        1.5174207456        0.2796734994
 H         -2.5690403416        0.4796186894        0.2022411349
 H         -1.5639106382        0.6585988238       -1.2221649133
 C          0.6583825328       -0.6595804789       -0.3082277406
 H         -1.2500759578       -1.5366555161        0.0028897622
 H         -0.6599338418       -0.6513597133        1.3989456715
 N          1.4321333059        0.5475201761        0.1203278481
 H          0.5871709368       -0.6482712732       -1.3969037486
 H          1.2028131378       -1.5523465755        0.0003764891
 H          2.3513805356        0.5953841590       -0.3342152888
 H          1.5617782272        0.5383306985        1.1403989988
 H          0.8816783508        1.3828582386       -0.1279396016
