14
	Energy:       3.3020347
C         -1.66112       -1.38250        0.01451
C         -0.85700       -0.09855        0.19631
H         -1.00628       -2.26071        0.19593
H         -2.06078       -1.44453       -1.02015
H         -2.50618       -1.41409        0.73489
C         -1.72839        1.14053       -0.04634
H         -0.00691       -0.10181       -0.52005
H         -0.45130       -0.07143        1.23096
N         -0.95220        2.36754        0.12938
H         -2.58132        1.14117        0.66862
H         -2.13727        1.11083       -1.08102
H         -0.58010        2.42109        1.10548
H         -1.57168        3.19221       -0.04215
H         -0.15933        2.39234       -0.55241
