  33
        -39.60536077
 N         -1.0625809917        0.0449068688        0.0926425016
 C         -0.0003749834        0.8850005657       -0.0004562183
 N          1.0623168444        0.0455560168       -0.0938129413
 C          0.6784950323       -1.2826962667       -0.0549260408
 C         -0.6779867769       -1.2831101202        0.0535699867
 C         -2.4274828891        0.5202817801        0.1547677746
 C          2.4270668648        0.5214615329       -0.1553901572
 C         -2.5320815399        1.6731957520        1.1504563002
 H         -3.0604461826       -0.3066939703        0.4964213001
 C         -2.8856640972        0.9600210121       -1.2378403409
 H          3.0598647650       -0.3040575864       -0.5009106532
 C          2.8865565820        0.9558012342        1.2385009333
 C          2.5304441700        1.6783425127       -1.1465478932
 C          1.6379835101       -2.4182524846       -0.1296820853
 C         -1.6367726056       -2.4192661011        0.1281597156
 H         -3.9182640089        1.2963269167       -1.2076047988
 H         -2.8063369983        0.1357684351       -1.9440380625
 H         -2.2543417937        1.7742302761       -1.5842258432
 H         -1.8752444448        2.4790145596        0.8371021986
 H         -2.2269027569        1.3455246056        2.1414273862
 H         -3.5552693843        2.0349837592        1.1982070341
 H          3.5531548383        2.0417079209       -1.1924531169
 H          1.8723421468        2.4819970306       -0.8303296719
 H          2.2261332989        1.3540909449       -2.1388907976
 H          3.9189855267        1.2926616624        1.2085479791
 H          2.8083250732        0.1286918213        1.9414801443
 H          2.2552919268        1.7683595849        1.5888695143
 H         -2.1693921263       -2.4202214043        1.0805210985
 H         -1.1020725208       -3.3610157565        0.0369273899
 H         -2.3721477594       -2.3637393268       -0.6751067810
 H          2.3735885625       -2.3621367883        0.6733182737
 H          2.1702981566       -2.4190604793       -1.0822062420
 H          1.1039205474       -3.3603354497       -0.0380836664
