  33
        -39.60109971
 N         -1.0622141554       -0.0400088782        0.0866510951
 C          0.0001156096       -0.8794170543       -0.0003528417
 N          1.0622958872       -0.0398234300       -0.0870607348
 C          0.6784084697        1.2877070037       -0.0503557577
 C         -0.6784885153        1.2875695714        0.0506564253
 C         -2.4238111693       -0.5208506339        0.1440017378
 C          2.4239822329       -0.5204988732       -0.1436732702
 C         -2.8600307489       -0.9952528664       -1.2439681583
 H         -3.0679803394        0.3074994594        0.4600900660
 C         -2.5275852312       -1.6531327842        1.1631606084
 H          3.0684611855        0.3082987987       -0.4579143221
 C          2.5290648130       -1.6514327467       -1.1641839012
 C          2.8584828353       -0.9966881057        1.2442252671
 C          1.6383895956        2.4228781087       -0.1176474203
 C         -1.6385681542        2.4226343349        0.1184708997
 H         -1.8543433728       -2.4551701116        0.8754879469
 H         -3.5460853527       -2.0299248138        1.2063441534
 H         -2.2402622356       -1.2997848889        2.1506799808
 H         -2.7850020244       -0.1839928049       -1.9654355552
 H         -3.8879860538       -1.3475905219       -1.2201973617
 H         -2.2114102863       -1.8058010782       -1.5661752941
 H          3.8866167562       -1.3485598010        1.2214485683
 H          2.2097103130       -1.8079471356        1.5643333122
 H          2.7820413814       -0.1864837144        1.9667341524
 H          2.2430212112       -1.2968166331       -2.1516192912
 H          1.8555185590       -2.4538869555       -0.8784188554
 H          3.5476403137       -2.0281187492       -1.2065424078
 H         -2.3644982685        2.3702748760       -0.6939346772
 H         -1.1038535199        3.3654820205        0.0373222433
 H         -2.1828372490        2.4200461925        1.0644059621
 H          2.1818061449        2.4214535546       -1.0640844029
 H          2.3650406631        2.3695448638        0.6940470013
 H          1.1037461592        3.3656297050       -0.0348538225
