15
	Energy:      28.0869344
N         -1.95614       -0.46757        0.34128
C         -1.00754       -1.48895       -0.03800
N          0.18147       -0.73420       -0.35742
C         -0.06168        0.64162       -0.17481
C         -1.35495        0.80238        0.24786
C         -3.31656       -0.70945        0.75440
C          1.42698       -1.31397       -0.79705
H         -3.53730       -1.79803        0.74100
H         -4.01537       -0.19303        0.06330
H         -3.46917       -0.32498        1.78471
H          1.80999       -2.00793       -0.01980
H          2.18607       -0.52308       -0.97728
H          1.26405       -1.87605       -1.74040
H          0.65620        1.43417       -0.34185
H         -1.83931        1.74351        0.47368
