  15
        -20.59599798
 N         -1.0646237290       -0.1249704403       -0.0000646784
 C          0.0000029824       -0.9673903349       -0.0000340811
 N          1.0646232517       -0.1249740925        0.0000135226
 C          0.6763835389        1.1921983368        0.0000245020
 C         -0.6763895067        1.1922032168       -0.0000183453
 C         -2.4326169752       -0.5599509053        0.0000520152
 C          2.4326230250       -0.5599286242        0.0000105416
 H         -2.4414455190       -1.6476570102        0.0006179401
 H         -2.9534940148       -0.1943570779       -0.8880183158
 H         -2.9536186246       -0.1933651792        0.8876796325
 H          2.9537225915       -0.1932068569       -0.8874325565
 H          2.4415182028       -1.6477091768       -0.0007965620
 H          2.9533043202       -0.1945637500        0.8882615472
 H          1.3782487121        2.0017252127        0.0000609739
 H         -1.3782655525        2.0017158079       -0.0000744609
