  16
        -28.83756811
 N          1.0904780409        1.1517248802        0.0000880890
 N         -1.0904865466        1.1517145414        0.0001085080
 C          0.6908634451       -0.1615062296        0.0000441288
 C         -0.6908627350       -0.1615133925        0.0000413706
 C         -0.0000071496        1.9174050439        0.0000935461
 Cl         1.7896086396       -1.4506586533       -0.0000318281
 Cl        -1.7895937948       -1.4506721955        0.0000107088
 C          2.4603981225        1.5891654975       -0.0000950549
 C         -2.4604174080        1.5891511146       -0.0001702747
 H          2.9722913916        1.2054353622        0.8828444353
 H         -2.9713624363        1.2076316706       -0.8846371715
 H          2.4997657373        2.6753841728        0.0012898133
 H         -2.9723575995        1.2055048271        0.8827897829
 H         -2.4997915224        2.6753787312        0.0011009961
 H          2.9713832608        1.2077423043       -0.8845693958
 H         -0.0000262339        2.9912665253        0.0002205576
  16
        -28.83689663
 N          1.0973864896        1.1520888889       -0.0011938225
 N         -1.0854340874        1.1534111303        0.0000355270
 C          0.6967269702       -0.1605693510       -0.0004403120
 C         -0.6857458007       -0.1590119828       -0.0000789854
 C          0.0049381085        1.9177787736       -0.0006040014
 Cl         1.7721670727       -1.4698997987        0.0000262807
 Cl        -1.7838603106       -1.4491207819        0.0001457214
 C          2.4587942344        1.6217542394        0.0011119496
 C         -2.4550114445        1.5912623388        0.0003420385
 H          2.6353880842        2.2712610367       -0.8557588375
 H         -2.9660180915        1.2112762701       -0.8847373612
 H          3.1281023239        0.7665464975       -0.0538587246
 H         -2.9670337796        1.2062989145        0.8826501587
 H         -2.4941758397        2.6775760024        0.0033568579
 H          2.6655382558        2.1783479158        0.9153171649
 H          0.0086218222        2.9916975864       -0.0008634963
