  15
        -20.59256245
 N         -1.0637355529       -0.1243116118       -0.0000741379
 C          0.0000200293       -0.9664458212       -0.0000982719
 N          1.0637654982       -0.1242449628       -0.0000738360
 C          0.6761608754        1.1930065684        0.0000157650
 C         -0.6761931460        1.1930272045        0.0000060167
 C         -2.4289595931       -0.5612837090        0.0000902291
 C          2.4289391888       -0.5612764982        0.0000875432
 H         -2.9539123748       -0.1963580604       -0.8867429876
 H         -2.9527921867       -0.1993178229        0.8888176353
 H         -2.4362019644       -1.6495112770       -0.0016636692
 H          2.9539405167       -0.1964522824       -0.8867553889
 H          2.4361139981       -1.6495365156       -0.0016439522
 H          2.9528326445       -0.1993743419        0.8888012536
 H          1.3780299114        2.0025296016        0.0000257490
 H         -1.3780376601        2.0025530282        0.0000107760
  15
        -20.59142654
 N         -1.0636050696       -0.1239828199       -0.0000108829
 C         -0.0007306853       -0.9652667444        0.0006849185
 N          1.0644781291       -0.1217534229        0.0005883300
 C          0.6747513682        1.1935635722        0.0002233577
 C         -0.6779130226        1.1939954615       -0.0000933558
 C         -2.4283494105       -0.5627129050       -0.0003768422
 C          2.4300639409       -0.5652170903       -0.0007272377
 H         -2.9528400907       -0.1999613406       -0.8883601548
 H         -2.9533895731       -0.1996270796        0.8871131762
 H         -2.4340444688       -1.6509571454       -0.0001761909
 H          2.6355735976       -1.1590737401       -0.8935987346
 H          2.6266334316       -1.1875808480        0.8743004269
 H          3.0974801729        0.2958726419        0.0162496209
 H          1.3743912836        2.0053555456        0.0001972153
 H         -1.3799845442        2.0030741776       -0.0003042180
