  15
        -20.59256245
 N         -1.0637355529       -0.1243116118       -0.0000741379
 C          0.0000200293       -0.9664458212       -0.0000982719
 N          1.0637654982       -0.1242449628       -0.0000738360
 C          0.6761608754        1.1930065684        0.0000157650
 C         -0.6761931460        1.1930272045        0.0000060167
 C         -2.4289595931       -0.5612837090        0.0000902291
 C          2.4289391888       -0.5612764982        0.0000875432
 H         -2.9539123748       -0.1963580604       -0.8867429876
 H         -2.9527921867       -0.1993178229        0.8888176353
 H         -2.4362019644       -1.6495112770       -0.0016636692
 H          2.9539405167       -0.1964522824       -0.8867553889
 H          2.4361139981       -1.6495365156       -0.0016439522
 H          2.9528326445       -0.1993743419        0.8888012536
 H          1.3780299114        2.0025296016        0.0000257490
 H         -1.3780376601        2.0025530282        0.0000107760
