  17
  -21.6129906500000       0.111115161009539      !gc
 N         -1.0679227336       -0.1901650606        0.0000918950
 C         -0.0000504879       -0.9902029081       -0.0001035777
 N          1.0678975225       -0.1902638148       -0.0003200506
 C          0.7642162907        1.2419208436       -0.0000556436
 C         -0.7641141608        1.2419885952        0.0000862825
 C         -2.4283383646       -0.6263620814        0.0000254857
 C          2.4282999971       -0.6263803352        0.0002067153
 H         -2.9567122395       -0.2602415820        0.8876824846
 H         -2.4406654186       -1.7136611184        0.0004864043
 H         -2.9564548078       -0.2610174580       -0.8881135307
 H          2.9571809834       -0.2594578229       -0.8868035651
 H          2.4407284268       -1.7136740464       -0.0011883501
 H          2.9558693527       -0.2618067768        0.8889922642
 H          1.1903631601        1.7213756639       -0.8888508211
 H          1.1905285094        1.7211176347        0.8888009627
 H         -1.1903943328        1.7213305818       -0.8886974802
 H         -1.1902514657        1.7212875825        0.8889643842
  17
  -21.6129906500000       0.111115161009539      !gc
 N         -1.0679176570       -0.1902110005       -0.0004866190
 C         -0.0000220527       -0.9901942200       -0.0001621559
 N          1.0679112485       -0.1902501770        0.0001230969
 C          0.7641871609        1.2419317419        0.0001322903
 C         -0.7641241031        1.2419865276       -0.0000941619
 C         -2.4283315928       -0.6263333599        0.0003817242
 C          2.4282899226       -0.6264140541       -0.0000022744
 H         -2.9574836235       -0.2590232106       -0.8862950727
 H         -2.9555359513       -0.2621061332        0.8895255516
 H         -2.4407119592       -1.7136308026       -0.0014458409
 H          2.9565047492       -0.2608976514        0.8880023471
 H          2.9565049080       -0.2604287515       -0.8878133043
 H          2.4406725313       -1.7137140704       -0.0002857234
 H          1.1904885947        1.7213692412       -0.8886087759
 H          1.1902365753        1.7212910078        0.8890383699
 H         -1.1901548120        1.7215362033       -0.8888810916
 H         -1.1904240294        1.7211565093        0.8887715446
  17
  -21.6129906500000       0.111115161009539      !gc
 N         -1.0679263348       -0.1901550602       -0.0000952315
 C         -0.0000668391       -0.9902012126       -0.0001524452
 N          1.0678931817       -0.1902641618       -0.0002435847
 C          0.7642237934        1.2419221294       -0.0001345715
 C         -0.7641076022        1.2420037545        0.0001707701
 C         -2.4283197786       -0.6263832065        0.0001181402
 C          2.4282906533       -0.6263804551        0.0002348739
 H         -2.9568102159       -0.2603734162       -0.8875182144
 H         -2.9563484581       -0.2609641627        0.8882790976
 H         -2.4406361336       -1.7136758967       -0.0002327328
 H          2.9571332856       -0.2595119043       -0.8868203407
 H          2.4407143878       -1.7136658872       -0.0010930831
 H          2.9558968312       -0.2617494883        0.8889729675
 H          1.1902701651        1.7212300236       -0.8890634403
 H          1.1906721372        1.7212568909        0.8885789726
 H         -1.1905251380        1.7215340328       -0.8884359790
 H         -1.1901471749        1.7210753078        0.8892197286
  17
  -21.6129906400000       0.111113985200761      !gc
 N         -1.0679243419       -0.1901914252        0.0003659862
 C         -0.0000392914       -0.9901914619        0.0002124207
 N          1.0679051164       -0.1902574003        0.0000610066
 C          0.7641956622        1.2419248722       -0.0001484915
 C         -0.7641153651        1.2420000099        0.0001530324
 C         -2.4283215346       -0.6263593291       -0.0003480223
 C          2.4282889997       -0.6264073698       -0.0001636072
 H         -2.9563240731       -0.2595682856       -0.8879188906
 H         -2.9567427037       -0.2616367260        0.8878982521
 H         -2.4406567769       -1.7136457904       -0.0015461448
 H          2.4406952321       -1.7137046981        0.0015007165
 H          2.9570379173       -0.2592565231        0.8868380727
 H          2.9559593419       -0.2620408418       -0.8889775910
 H          1.1901981168        1.7211469979       -0.8891496918
 H          1.1905574832        1.7214842353        0.8884978307
 H         -1.1905090152        1.7212843805       -0.8886096300
 H         -1.1900492919        1.7214360865        0.8890447088
  17
  -21.6129906100000       0.111110457849498      !md2
 N         -1.0679055129       -0.1902000693       -0.0007628941
 C         -0.0000535758       -0.9902606237       -0.0006906028
 N          1.0678829218       -0.1903179655       -0.0005330643
 C          0.7641624438        1.2419353209       -0.0000205409
 C         -0.7640897328        1.2419975244        0.0000691108
 C         -2.4283086852       -0.6263138305        0.0008129590
 C          2.4282959127       -0.6263460413        0.0006954997
 H         -2.4407085463       -1.7136160249       -0.0004599294
 H         -2.9578315041       -0.2594775839       -0.8858727286
 H         -2.9551852432       -0.2616558035        0.8899764448
 H          2.4408264349       -1.7136383115       -0.0006818292
 H          2.9553381364       -0.2617331339        0.8897686407
 H          2.9575753893       -0.2593625096       -0.8860719452
 H          1.1902623819        1.7216192204       -0.8887074573
 H          1.1903485632        1.7209651365        0.8889615587
 H         -1.1902166137        1.7219636874       -0.8884397669
 H         -1.1901708752        1.7208522043        0.8892117614
  17
  -21.6129906000000       0.111109282090488      !gc
 N         -1.0679363088       -0.1901182601        0.0002990054
 C         -0.0000921333       -0.9901925403        0.0002702359
 N          1.0678867425       -0.1902834066        0.0002841807
 C          0.7642392876        1.2419101011        0.0000841152
 C         -0.7641030025        1.2420106603       -0.0000885854
 C         -2.4283142643       -0.6264173567       -0.0002872053
 C          2.4282945253       -0.6263646444       -0.0003796207
 H         -2.4405477147       -1.7137050556        0.0024234780
 H         -2.9555960671       -0.2630046081       -0.8897323908
 H         -2.9575976357       -0.2584680061        0.8860544844
 H          2.9563643351       -0.2594881201       -0.8878934196
 H          2.4407641912       -1.7136554508       -0.0017531700
 H          2.9566557648       -0.2617016200        0.8879055484
 H          1.1906624928        1.7211314262       -0.8887113394
 H          1.1903393144        1.7213145154        0.8889286425
 H         -1.1902188960        1.7210820438       -0.8890987531
 H         -1.1904278910        1.7215826577        0.8885518116
  17
  -21.6129905800000       0.111106930610212      !gc
 N         -1.0679364406       -0.1901143124       -0.0004985778
 C         -0.0000945393       -0.9901925514       -0.0004218955
 N          1.0678855155       -0.1902857896       -0.0004039003
 C          0.7642400479        1.2419087109       -0.0003170569
 C         -0.7641030535        1.2420119700        0.0003746803
 C         -2.4283125896       -0.6264203215        0.0004277529
 C          2.4282949809       -0.6263630823        0.0005592007
 H         -2.4405383600       -1.7137067000       -0.0026064820
 H         -2.9579020898       -0.2582022215       -0.8856152750
 H         -2.9552913101       -0.2632844028        0.8901694714
 H          2.9559417842       -0.2602747865        0.8886575659
 H          2.9570759864       -0.2609085579       -0.8871422404
 H          2.4407687096       -1.7136543846        0.0009964809
 H          1.1899891609        1.7211092507       -0.8894497591
 H          1.1910136831        1.7213348866        0.8881897057
 H         -1.1907622225        1.7220079122       -0.8878641243
 H         -1.1898837309        1.7206628489        0.8897859107
  17
  -21.6129905800000       0.111106930610212      !mtd14
 N         -1.0679382854       -0.1901701515       -0.0000990620
 C         -0.0000369304       -0.9901886018        0.0003330989
 N          1.0679120425       -0.1902207178        0.0008341140
 C          0.7642079028        1.2419654848       -0.0001405467
 C         -0.7641099847        1.2419722483        0.0001259331
 C         -2.4283320133       -0.6263749409       -0.0002300024
 C          2.4282893841       -0.6264400488       -0.0006011229
 H         -2.9567191760       -0.2605122259        0.8875325671
 H         -2.4406859109       -1.7136777307       -0.0000697235
 H         -2.9564643028       -0.2607719094       -0.8882624936
 H          2.4406076621       -1.7137373720        0.0031440638
 H          2.9583358964       -0.2575791381        0.8849223187
 H          2.9547785255       -0.2638611012       -0.8908976803
 H          1.1902654169        1.7206387286       -0.8894076954
 H          1.1905814498        1.7219377331        0.8882433914
 H         -1.1904593007        1.7215427849       -0.8884875376
 H         -1.1900943405        1.7211018994        0.8891768916
  17
  -21.6129905800000       0.111106930610212      !gc
 N         -1.0679365647       -0.1901154953       -0.0004267439
 C         -0.0000939061       -0.9901923987       -0.0001429680
 N          1.0678860327       -0.1902850717        0.0001661932
 C          0.7642399825        1.2419090006       -0.0003912335
 C         -0.7641027614        1.2420114162        0.0004162295
 C         -2.4283133903       -0.6264195052        0.0001718819
 C          2.4282946325       -0.6263632431        0.0001206301
 H         -2.9557041019       -0.2626599564        0.8894079291
 H         -2.4405402029       -1.7137076625       -0.0021254304
 H         -2.9574913170       -0.2588211455       -0.8863802203
 H          2.9571482422       -0.2582488339        0.8866392677
 H          2.9558690897       -0.2629386902       -0.8891550484
 H          2.4407699440       -1.7136518720        0.0029644373
 H          1.1899062478        1.7206910401       -0.8897974716
 H          1.1910968302        1.7217523202        0.8878417764
 H         -1.1908670614        1.7220377383       -0.8877521930
 H         -1.1897780761        1.7206308850        0.8898978337
