  19
        -22.60917602
 N         -1.1705029715       -0.1011749445       -0.0299037381
 C          0.0000146199       -0.7309727205       -0.0000828217
 N          1.1705147425       -0.1011737365        0.0299243621
 C         -2.3342427309       -0.9535076194        0.0899186052
 C          2.3342751273       -0.9534677647       -0.0898626486
 H         -2.0030454444       -1.9855368620        0.1708716538
 H         -2.9836548628       -0.8521020370       -0.7855305545
 H         -2.9137189908       -0.6923357157        0.9810792161
 H          2.0030167845       -1.9854728510       -0.1713435208
 H          2.9834911096       -0.8524074324        0.7857839215
 H          2.9139770234       -0.6919940676       -0.9808333947
 C         -1.5290582524        1.3114478306       -0.1190600099
 H         -2.5050667872        1.3932572894       -0.6010272714
 H         -0.8121237214        1.8569038715       -0.7262650900
 H         -1.6012067113        1.7753665816        0.8705377204
 C          1.5290120011        1.3114666121        0.1190655306
 H          0.8121884945        1.8567766301        0.7267177049
 H          1.6006533223        1.7754686414       -0.8706284194
 H          2.5053170849        1.3932522430        0.6006057821
  19
        -22.60824306
 N         -1.1664857804       -0.0875087615       -0.0027484717
 C          0.0058132246       -0.7106766937       -0.0001738209
 N          1.1848066646       -0.0975074440        0.0029857211
 C         -2.3232064452       -0.9594870424       -0.0012967122
 C          2.3327841968       -0.9811116575        0.0001820866
 H         -2.9418373310       -0.7784312571        0.8833894376
 H         -1.9851174190       -1.9921277388        0.0034030885
 H         -2.9387913024       -0.7854695186       -0.8895542210
 H          2.9498743503       -0.8201684484        0.8895508517
 H          2.9506346332       -0.8133881561       -0.8873712597
 H          1.9783724810       -2.0087466456       -0.0038925220
 C         -1.5835825416        1.3097281384       -0.0045336261
 H         -2.2071986855        1.5034084990       -0.8836969969
 H         -0.7453935484        1.9919166418       -0.0203899213
 H         -2.1843940826        1.5144402271        0.8880197249
 C          1.5564334388        1.3174269254        0.0056047191
 H          2.6423505325        1.3985094076        0.0204616007
 H          1.1712161990        1.8254852540        0.8931735574
 H          1.1958003259        1.8231646181       -0.8938002034
