  15
        -28.69172187
 N         -1.0710271630        1.1743724675       -0.0001121366
 N          1.0710660200        1.1743524170       -0.0000846251
 C         -0.6814007963       -0.1418357148       -0.0000547548
 C          0.6814016776       -0.1418168048       -0.0000551591
 C          0.0000163944        2.0060936517       -0.0001134358
 Cl        -1.7796533916       -1.4501274166       -0.0000858815
 Cl         1.7796114058       -1.4501929491        0.0001130039
 C         -2.4370290094        1.6137887709        0.0003029064
 C          2.4370729561        1.6137834760       -0.0000257444
 H         -2.9561827805        1.2481271699        0.8882433750
 H          2.9565784909        1.2479178213       -0.8876299999
 H         -2.9572988586        1.2460143599       -0.8860754864
 H          2.4340416222        2.7010699938        0.0009463026
 H          2.9570578852        1.2462583300        0.8866231418
 H         -2.4339890730        2.7010899457       -0.0009682573
  15
        -28.69037384
 N         -1.0676375501        1.1760851027        0.0005286109
 N          1.0765270654        1.1775902377       -0.0004219520
 C         -0.6769475281       -0.1392576017        0.0002236385
 C          0.6863007776       -0.1386229660       -0.0000401620
 C          0.0019755195        2.0074944512        0.0001780837
 Cl        -1.7730711355       -1.4497187144       -0.0000799531
 Cl         1.7633051782       -1.4658769120        0.0000365504
 C         -2.4337597740        1.6152165861       -0.0002471127
 C          2.4389803821        1.6375364832       -0.0000132770
 H         -2.4311047172        2.7023803878        0.0131586097
 H          3.1107674743        0.7817396870       -0.0172338897
 H         -2.9570593584        1.2369856003        0.8798025871
 H          2.6195176382        2.2605138458       -0.8762087215
 H          2.6299632037        2.2322369653        0.8936459863
 H         -2.9493189459        1.2595812371       -0.8943257420
