  18
        -21.78157077
 N         -1.0967187171       -0.1704802919        0.0003259390
 C         -0.0000423934       -0.8844522543        0.0002577471
 N          1.0966921251       -0.1705590192        0.0001430163
 H         -0.0000242593       -1.9626662763        0.0003359611
 C          0.7697682021        1.2515064912       -0.0002007423
 C         -0.7697310562        1.2515472728        0.0001504392
 C         -2.4544560301       -0.6308481133       -0.0003537690
 C          2.4544757236       -0.6308379040       -0.0001853473
 H         -2.9757522212       -0.2607289905       -0.8850917559
 H         -2.9761813721       -0.2623580562        0.8848155643
 H         -2.4809551633       -1.7176797979       -0.0013680270
 H          2.9758502428       -0.2625041689        0.8852406562
 H          2.9760601295       -0.2604705297       -0.8846300427
 H          2.4810619567       -1.7176431752       -0.0014041970
 H          1.1929500773        1.7321770063       -0.8860494483
 H          1.1935190584        1.7328164313        0.8850239629
 H         -1.1934427140        1.7325778982       -0.8852524495
 H         -1.1928883388        1.7325629412        0.8858152365
