16
Properties=species:S:1:pos:R:3 energy=-8360.907063802084 free_energy=-8360.907063802084 pbc="F F F"
N        0.00000000       1.08652400       1.05639000
N       -0.00000000      -1.08652500       1.05638900
C        0.00000000       0.68238000      -0.26171300
C       -0.00000000      -0.68238000      -0.26171400
C        0.00000000      -0.00000000       1.82460100
Cl       0.00000000       1.76336400      -1.55896100
Cl      -0.00000200      -1.76336300      -1.55896200
C       -0.00000000       2.47186900       1.51970400
C        0.00000000      -2.47186900       1.51970400
H       -0.00000000       2.46760800       2.61529500
H       -0.00000000      -2.46760700       2.61529500
H       -0.90002700       2.97631300       1.14596400
H       -0.90002600      -2.97631400       1.14596500
H        0.90002800      -2.97631300       1.14596600
H        0.90002700       2.97631300       1.14596500
H       -0.00000000      -0.00000100       2.91533700
