  17
        -21.61591179
 N         -1.0685201111       -0.1912394930        0.0001006305
 C          0.0000227566       -0.9919086816        0.0001165485
 N          1.0685357485       -0.1911841359        0.0000596819
 C          0.7641180718        1.2419463930        0.0000339405
 C         -0.7641510652        1.2419299434       -0.0000519111
 C         -2.4315661452       -0.6249516195       -0.0000888073
 C          2.4315624689       -0.6249545634       -0.0001120355
 H         -2.9565276335       -0.2571950658       -0.8884211049
 H         -2.9570147143       -0.2562402642        0.8875084607
 H         -2.4470535707       -1.7119822590        0.0004058834
 H          2.9563401689       -0.2580269223       -0.8888661840
 H          2.4470457120       -1.7119640661        0.0014730731
 H          2.9572374938       -0.2554550751        0.8870135534
 H          1.1905735219        1.7202795992       -0.8888217196
 H          1.1902935683        1.7201462644        0.8890974618
 H         -1.1903318752        1.7200102359       -0.8891639134
 H         -1.1906141827        1.7203240741        0.8887653170
  17
        -21.61331681
 N         -1.0701774599       -0.1845304068       -0.0013619317
 C         -0.0029065542       -0.9873241241       -0.0008461976
 N          1.0679920272       -0.1907686112       -0.0005817059
 C          0.7686442312        1.2436226862        0.0001536465
 C         -0.7595477489        1.2494394981       -0.0000709900
 C         -2.4338552162       -0.6401144798        0.0012873412
 C          2.4296723935       -0.6284150334        0.0008595736
 H         -2.6431464187       -1.2329189073        0.8951374774
 H         -2.6357136318       -1.2608214286       -0.8748374910
 H         -3.1017135328        0.2194862610       -0.0149251501
 H          2.9544265488       -0.2632750279        0.8903829841
 H          2.9573342130       -0.2599217322       -0.8855082867
 H          2.4422142959       -1.7154977426       -0.0011080186
 H          1.1969909402        1.7206677499       -0.8885261571
 H          1.1967489544        1.7196825901        0.8895003293
 H         -1.1802305596        1.7312691707       -0.8894421878
 H         -1.1804584267        1.7300470899        0.8898516005
