  17
        -21.61591179
 N         -1.0685201111       -0.1912394930        0.0001006305
 C          0.0000227566       -0.9919086816        0.0001165485
 N          1.0685357485       -0.1911841359        0.0000596819
 C          0.7641180718        1.2419463930        0.0000339405
 C         -0.7641510652        1.2419299434       -0.0000519111
 C         -2.4315661452       -0.6249516195       -0.0000888073
 C          2.4315624689       -0.6249545634       -0.0001120355
 H         -2.9565276335       -0.2571950658       -0.8884211049
 H         -2.9570147143       -0.2562402642        0.8875084607
 H         -2.4470535707       -1.7119822590        0.0004058834
 H          2.9563401689       -0.2580269223       -0.8888661840
 H          2.4470457120       -1.7119640661        0.0014730731
 H          2.9572374938       -0.2554550751        0.8870135534
 H          1.1905735219        1.7202795992       -0.8888217196
 H          1.1902935683        1.7201462644        0.8890974618
 H         -1.1903318752        1.7200102359       -0.8891639134
 H         -1.1906141827        1.7203240741        0.8887653170
