27
Properties=species:S:1:pos:R:3 energy=-8347.217610677084 free_energy=-8347.217610677084 pbc="F F F"
C        0.00000000       2.45646600       0.55323200
C       -0.00000000      -2.45646600       0.55323200
N        0.00000100       1.06325200       0.09961600
N        0.00000100      -1.06325200       0.09961600
C        0.00000200       0.67807500      -1.23120300
C        0.00000100      -0.67807500      -1.23120300
C        0.00000400       0.00000000       0.94665100
C        1.26800100       3.17664600       0.10756400
C       -1.26800200       3.17664400       0.10756700
C       -1.26800200      -3.17664400       0.10756400
C        1.26800100      -3.17664600       0.10756700
H        0.00000100       1.38523200      -2.05959600
H        0.00000000      -1.38523200      -2.05959600
H        0.00000200       2.38132700       1.65106200
H       -0.00000100      -2.38132700       1.65106200
H        1.31235100       3.26208600      -0.99052000
H       -1.31235500       3.26208300      -0.99051800
H       -1.31235300      -3.26208300      -0.99052000
H        1.31235400      -3.26208400      -0.99051800
H        1.29242500       4.19375200       0.52665000
H       -1.29242700       4.19375000       0.52665200
H       -1.29242600      -4.19375100       0.52664900
H        1.29242300      -4.19375300       0.52665100
H        2.16446000       2.63827600       0.45097100
H       -2.16446000       2.63827300       0.45097600
H       -2.16446000      -2.63827400       0.45097200
H        2.16445900      -2.63827700       0.45097700
