  18
  -21.8595343500000       0.104197825407795      !gc
 N         -1.0951787001        0.1708215665        0.0002290007
 C          0.0000598313        0.8862784362        0.0003692155
 N          1.0951854189        0.1707530275        0.0005506456
 H          0.0001081630        1.9638418312        0.0005516458
 C          0.7699069385       -1.2515796249       -0.0001910976
 C         -0.7699946257       -1.2515542782        0.0000947286
 C         -2.4527543812        0.6297828021       -0.0004167705
 C          2.4527786903        0.6297268402       -0.0004479065
 H         -2.9713642436        0.2616115044       -0.8874220100
 H         -2.4789188320        1.7164400607        0.0026354404
 H         -2.9737135304        0.2565594681        0.8830544331
 H          2.4789780508        1.7164286124        0.0036438168
 H          2.9709438018        0.2624223578       -0.8880082675
 H          2.9741696029        0.2558040803        0.8824697714
 H          1.1929489714       -1.7309128865        0.8857449550
 H          1.1926095025       -1.7298888400       -0.8868575125
 H         -1.1927076169       -1.7303370349        0.8864991513
 H         -1.1931049731       -1.7303630078       -0.8860933416
  18
  -21.8595343500000       0.104197825407795      !gc
 N         -1.0951724305        0.1708282027        0.0002648267
 C          0.0000663461        0.8862839732        0.0001874742
 N          1.0951841306        0.1707453379        0.0001328500
 H          0.0001158858        1.9638449978        0.0002853753
 C          0.7698969523       -1.2515827934       -0.0006949911
 C         -0.7699986750       -1.2515563849        0.0006377782
 C         -2.4527523354        0.6297641277       -0.0004636286
 C          2.4527795080        0.6297254941        0.0000364335
 H         -2.4789105957        1.7164689548        0.0031831473
 H         -2.9738761958        0.2561293852        0.8827058340
 H         -2.9711514605        0.2621629558       -0.8878029484
 H          2.4789532300        1.7164619088       -0.0001329038
 H          2.9725239591        0.2590171394       -0.8851736030
 H          2.9725766315        0.2593026074        0.8853356164
 H          1.1935691802       -1.7312281774        0.8847579527
 H          1.1919505793       -1.7295988361       -0.8878436264
 H         -1.1920852428       -1.7298006242        0.8876445809
 H         -1.1937308004       -1.7309040666       -0.8849473879
  18
  -21.8595343500000       0.104197825407795      !md3
 N         -1.0951763993        0.1708639695       -0.0000156220
 C          0.0000400948        0.8862820046        0.0003881566
 N          1.0952009493        0.1707008076        0.0008983457
 H          0.0003778804        1.9638605022        0.0008143897
 C          0.7699444108       -1.2516333938        0.0000388925
 C         -0.7699817947       -1.2515252263       -0.0001492248
 C         -2.4527953261        0.6297743695       -0.0002513676
 C          2.4527695956        0.6297422473       -0.0006957507
 H         -2.9723084644        0.2594194252       -0.8857080679
 H         -2.4790999843        1.7163573779        0.0000510751
 H         -2.9728741791        0.2589364400        0.8846204255
 H          2.9736448880        0.2591363273        0.8839776393
 H          2.4788149620        1.7164304420       -0.0007079931
 H          2.9715820318        0.2590936390       -0.8865608234
 H          1.1927791494       -1.7309769678        0.8860763212
 H          1.1929155687       -1.7298662277       -0.8865203843
 H         -1.1929104198       -1.7303163585        0.8861357098
 H         -1.1929882823       -1.7301631178       -0.8864695467
  18
  -21.8595343000000       0.104192312473508      !gc
 N         -1.0951775729        0.1708219030        0.0002003643
 C          0.0000648598        0.8862783095        0.0002876429
 N          1.0951848064        0.1707496380        0.0004212976
 H          0.0001144493        1.9638393552        0.0004437951
 C          0.7699007622       -1.2515808558        0.0009174955
 C         -0.7699966128       -1.2515566331       -0.0009914891
 C         -2.4527547732        0.6297743473        0.0000063224
 C          2.4527784093        0.6297255389       -0.0006688177
 H         -2.9727885495        0.2587033861        0.8849144087
 H         -2.9722530867        0.2596251155       -0.8856074488
 H         -2.4788929590        1.7164875891        0.0005717394
 H          2.9707709416        0.2627214875       -0.8885363848
 H          2.9743331115        0.2555304981        0.8819429827
 H          2.4789731712        1.7164337886        0.0035560159
 H          1.1915910861       -1.7296565416        0.8882137884
 H          1.1939401423       -1.7311598626       -0.8843890094
 H         -1.1940541072       -1.7315186824        0.8840945633
 H         -1.1917470789       -1.7291970567       -0.8884947992
  18
  -21.8595343000000       0.104192312473508      !gc
 N         -1.0951699263        0.1708305364        0.0001070285
 C          0.0000658016        0.8862884722        0.0004322211
 N          1.0951842043        0.1707478611        0.0008339961
 H          0.0001170392        1.9638519757        0.0006669483
 C          0.7698954697       -1.2515820993        0.0002895160
 C         -0.7699990467       -1.2515554695       -0.0003896005
 C         -2.4527504078        0.6297656095       -0.0002448635
 C          2.4527779973        0.6297279972       -0.0007598855
 H         -2.4789142210        1.7164516392        0.0011107007
 H         -2.9731426448        0.2578965061        0.8840788280
 H         -2.9719010248        0.2603171843       -0.8864236116
 H          2.9701156208        0.2638708462       -0.8894902183
 H          2.9749900785        0.2543804050        0.8809698166
 H          2.4789760788        1.7164256638        0.0048726729
 H          1.1923409671       -1.7306037332        0.8866908686
 H          1.1931646848       -1.7302298636       -0.8859130980
 H         -1.1932941676       -1.7307760313        0.8854848778
 H         -1.1925294473       -1.7299161245       -0.8871097001
  18
  -21.8595342800000       0.104190107381309      !gc
 N         -1.0951694631        0.1708249096       -0.0006556825
 C          0.0000628093        0.8862904904       -0.0003252049
 N          1.0951816255        0.1707506143       -0.0001149380
 H          0.0001113714        1.9638517806       -0.0004702999
 C          0.7698951798       -1.2515793653       -0.0004956320
 C         -0.7699977581       -1.2515582945        0.0005505359
 C         -2.4527483219        0.6297657694        0.0003626887
 C          2.4527807641        0.6297221789        0.0004724157
 H         -2.9708760129        0.2624385836        0.8880418422
 H         -2.9741606787        0.2557871047       -0.8824485073
 H         -2.4789096711        1.7164468677       -0.0035584720
 H          2.4789688406        1.7164493641       -0.0040872130
 H          2.9740473428        0.2553884531       -0.8822888938
 H          2.9710428927        0.2629233434        0.8882015455
 H          1.1934246497       -1.7309386284        0.8851825573
 H          1.1920828188       -1.7298887024       -0.8874200984
 H         -1.1922679217       -1.7293621145        0.8877097872
 H         -1.1935453410       -1.7313431860       -0.8848836810
  18
  -21.8595342800000       0.104190107381309      !md1
 N         -1.0951478473        0.1709027761        0.0001085900
 C          0.0000974887        0.8863092346        0.0000204234
 N          1.0951971233        0.1707037198       -0.0001046012
 H         -0.0001363998        1.9638897302        0.0000265993
 C          0.7698875011       -1.2516104017        0.0013706898
 C         -0.7699826281       -1.2515293250       -0.0013862905
 C         -2.4527711440        0.6297126212        0.0003726190
 C          2.4527609220        0.6297439663       -0.0003748533
 H         -2.4790897717        1.7163693828        0.0006218512
 H         -2.9724164341        0.2587862590        0.8856069479
 H         -2.9726534311        0.2592308852       -0.8849167771
 H          2.9726332111        0.2597191485        0.8850607887
 H          2.4788720853        1.7164167865       -0.0011655224
 H          2.9725279781        0.2585017450       -0.8853663716
 H          1.1909961714       -1.7289007699        0.8893873167
 H          1.1944806144       -1.7319820361       -0.8832119350
 H         -1.1945677443       -1.7318194297        0.8832268848
 H         -1.1912373944       -1.7287142688       -0.8893560586
  18
  -21.8595342500000       0.104186799830902      !mtd1
 N         -1.0951969796        0.1706678245       -0.0000640267
 C         -0.0000577569        0.8862543743       -0.0000644611
 N          1.0951784213        0.1708370769       -0.0004349335
 H         -0.0000130784        1.9638295753       -0.0003587695
 C          0.7699842124       -1.2515157668       -0.0010027909
 C         -0.7699683633       -1.2516501796        0.0010726178
 C         -2.4527185360        0.6299590779       -0.0002081745
 C          2.4527230708        0.6296445783        0.0006316775
 H         -2.9724747113        0.2601853259        0.8853944218
 H         -2.9727511208        0.2586824811       -0.8850454525
 H         -2.4785640648        1.7166216987       -0.0011499650
 H          2.9729672314        0.2554867537        0.8842539840
 H          2.4791624885        1.7163758475        0.0046573246
 H          2.9721508097        0.2624240239       -0.8863054871
 H          1.1942879235       -1.7310772174        0.8842051222
 H          1.1916501729       -1.7294959197       -0.8883574970
 H         -1.1916663629       -1.7293440569        0.8885637771
 H         -1.1940460161       -1.7315656106       -0.8840342186
  18
  -21.8595342200000       0.104183492385496      !md4
 N         -1.0951781671        0.1708041269       -0.0008591299
 C          0.0000127747        0.8862602244       -0.0001389448
 N          1.0951954466        0.1707321266        0.0002858067
 H          0.0003152893        1.9638341726       -0.0003719899
 C          0.7699326177       -1.2516065895        0.0002969310
 C         -0.7700128703       -1.2515818298       -0.0002301422
 C         -2.4527538544        0.6298258940        0.0005982857
 C          2.4527824691        0.6297523133       -0.0000556334
 H         -2.9745513013        0.2557996294       -0.8820218041
 H         -2.4788755084        1.7164945735       -0.0035176692
 H         -2.9705991846        0.2626058950        0.8884459009
 H          2.9738717154        0.2542819461       -0.8824618923
 H          2.9714040039        0.2640353607        0.8879737253
 H          2.4788878356        1.7164028831       -0.0060633832
 H          1.1926216979       -1.7302904970        0.8867643983
 H          1.1931210232       -1.7304233314       -0.8858496850
 H         -1.1933539442       -1.7300423507        0.8860890081
 H         -1.1926186319       -1.7305097137       -0.8866260217
  18
  -21.8580099900000       2.076401356229630E-002 !gc
 N         -1.0973045315        0.1613480816       -0.0017315677
 C         -0.0037645834        0.8810518591       -0.0005389221
 N          1.0940263916        0.1703304389        0.0004094676
 H         -0.0106880122        1.9586547412       -0.0007034095
 C          0.7743219635       -1.2533593740       -0.0001366061
 C         -0.7658516414       -1.2597272333        0.0002626929
 C         -2.4515904424        0.6468838803        0.0011070529
 C          2.4497679537        0.6343275582        0.0002983190
 H         -3.1313949421       -0.2007429933       -0.0190772189
 H         -2.6401207139        1.2690815775       -0.8743926015
 H         -2.6499029917        1.2339947682        0.8987900955
 H          2.9710319547        0.2651369701        0.8852980531
 H          2.4719336252        1.7211220468        0.0006957648
 H          2.9707990491        0.2657647482       -0.8851056580
 H          1.1994481474       -1.7308792850        0.8858065102
 H          1.1988623598       -1.7299178656       -0.8869203843
 H         -1.1841383956       -1.7391546835        0.8883980995
 H         -1.1846333272       -1.7416568691       -0.8862440570
  18
  -21.8580095700000       2.075478721649540E-002 !gc
 N         -1.0973182891        0.1613572529       -0.0014688152
 C         -0.0037627171        0.8810092086       -0.0004908522
 N          1.0940313495        0.1703020195        0.0003568636
 H         -0.0106477763        1.9586135514       -0.0006613976
 C          0.7743412092       -1.2533827445        0.0000857210
 C         -0.7658392165       -1.2597439234        0.0000159803
 C         -2.4516008516        0.6469264969        0.0010235519
 C          2.4497520620        0.6343662030        0.0002083934
 H         -2.6408263615        1.2667401241       -0.8761045969
 H         -2.6491167577        1.2364441454        0.8972157469
 H         -3.1314965430       -0.2006948066       -0.0165344285
 H          2.9711850210        0.2647956802        0.8849431297
 H          2.4718605580        1.7211623453        0.0011128671
 H          2.9706570306        0.2662631160       -0.8854640683
 H          1.1991830049       -1.7306059189        0.8863343565
 H          1.1991900972       -1.7302051727       -0.8863963686
 H         -1.1844116819       -1.7395458409        0.8878012067
 H         -1.1843437814       -1.7412793044       -0.8868372116
  18
  -21.8580094700000       2.075259107179236E-002 !gc
 N         -1.0972793526        0.1613731117       -0.0013313875
 C         -0.0037390059        0.8810513543       -0.0003385799
 N          1.0940334416        0.1702775444        0.0004819587
 H         -0.0106345037        1.9586681563       -0.0004238294
 C          0.7742959905       -1.2533958442        0.0000532778
 C         -0.7658606898       -1.2597813431        0.0000246143
 C         -2.4515771304        0.6468900479        0.0008478468
 C          2.4497471408        0.6343904260        0.0000510938
 H         -3.1313602426       -0.2008013553       -0.0162155576
 H         -2.6407740470        1.2663655041       -0.8764969236
 H         -2.6491839117        1.2368946668        0.8967546124
 H          2.9699893505        0.2679906997       -0.8866747983
 H          2.9718329661        0.2634173846        0.8837538458
 H          2.4717547765        1.7212505573        0.0028378762
 H          1.1990996044       -1.7307677315        0.8862417485
 H          1.1990756087       -1.7301920993       -0.8864815521
 H         -1.1844319283       -1.7396110522        0.8877877149
 H         -1.1844168760       -1.7411615864       -0.8868846650
