33
Properties=species:S:1:pos:R:3 energy=-8347.217610677084 free_energy=-8347.217610677084 pbc="F F F"
C        1.57973400      -0.07001900       0.40568700
C        0.81755400      -1.08676500       0.87097800
N        0.73112400       0.75112000      -0.32367500
N       -0.47104800      -0.84937500       0.41345000
C       -0.54695600       0.28655800      -0.33058500
H        2.64188400       0.12749600       0.53897300
H        1.09108800      -1.94423400       1.48319200
C        1.20468900       1.99354800      -0.98057500
C       -1.60141700      -1.75835600       0.72108900
C        0.06259100       2.65264700      -1.74864500
C       -1.30328200      -3.13304000       0.11290400
C       -1.74473000      -1.86418200       2.24333300
C        2.33032200       1.63472100      -1.95625200
H       -0.32672700       1.98803700      -2.53325400
H       -0.38215300      -3.56862100       0.53011300
H       -0.84469200      -2.29539700       2.70779800
H        1.96974900       0.91887100      -2.71161100
H       -0.77024600       2.91600100      -1.08216500
H       -1.18593500      -3.05255900      -0.97920000
H       -1.92192700      -0.87020500       2.68325500
H        3.19322000       1.18843700      -1.43878900
H        0.44291800       3.57118800      -2.22078400
H       -2.13153300      -3.82653900       0.32411700
H       -2.59709200      -2.51302100       2.49557200
H        2.68072500       2.54041400      -2.47399900
C        1.71603100       2.95200000       0.10067000
C       -2.89525900      -1.20857700       0.12785500
H        2.06927800       3.88778400      -0.35869800
H       -3.71520300      -1.90099800       0.37206600
H        0.91005300       3.19488800       0.81089500
H       -2.82566800      -1.11394600      -0.96481600
H       -3.13496700      -0.21783400       0.53944900
H        2.55489500       2.51376600       0.66319400
