  34
        -39.85626139
 N         -1.0818365399       -0.0366845138        0.0885824150
 C         -0.0004923358       -0.8041521349       -0.0015067161
 N          1.0814746611       -0.0375722149       -0.0913551894
 H         -0.0009352702       -1.8738793229       -0.0018187172
 C          0.6845121058        1.2760576590       -0.0544037835
 C         -0.6837925573        1.2766166494        0.0520186505
 C         -2.4561749525       -0.5184256036        0.1537236207
 C          2.4556624615       -0.5199959164       -0.1543381278
 C         -2.9103222911       -0.9329866302       -1.2451026568
 H         -3.0665655415        0.3184933653        0.5000714424
 C         -2.5771022767       -1.6664557248        1.1514329486
 C          2.5764372382       -1.6739502689       -1.1451660495
 C          2.9098318164       -0.9264741381        1.2468740263
 H          3.0661366992        0.3148408243       -0.5055761665
 C          1.6363417337        2.4107326667       -0.1280534380
 C         -1.6345845306        2.4121398247        0.1261989231
 H         -3.9532341254       -1.2336913386       -1.2147410883
 H         -2.3213301847       -1.7714748864       -1.6080435795
 H         -2.8117361479       -0.1080498717       -1.9463579702
 H         -2.1242608974       -1.4008375504        2.1034490078
 H         -2.1118471831       -2.5731331756        0.7754130862
 H         -3.6281824074       -1.8796638453        1.3234184081
 H          3.6275370810       -1.8868136901       -1.3175003416
 H          2.1217938250       -1.4148069735       -2.0981076973
 H          2.1130971171       -2.5789652212       -0.7627865730
 H          3.9526354235       -1.2277266840        1.2182792299
 H          2.3204490009       -1.7626149027        1.6145901106
 H          2.8114814633       -0.0974815706        1.9433577010
 H         -2.1591538864        2.4160724234        1.0809848315
 H         -2.3720557726        2.3542585796       -0.6723676857
 H         -1.0997758885        3.3512156282        0.0291181980
 H          1.1019595764        3.3504058200       -0.0345754523
 H          2.1639242883        2.4122646675       -1.0811603103
 H          2.3713211966        2.3539460513        0.6728972684
  34
        -39.85623179
 N         -1.0885135257       -0.0284914958       -0.0745036916
 C         -0.0069270006       -0.7911326907       -0.1974447694
 N          1.0811133950       -0.0298142347       -0.1423712942
 H         -0.0116938013       -1.8525457135       -0.3300212635
 C          0.6881266208        1.2731461111        0.0383868162
 C         -0.6835184465        1.2739298612        0.0814408852
 C         -2.4652363580       -0.5073654664       -0.0519945432
 C          2.4562990278       -0.5094945131       -0.2049724898
 C         -2.6867209389       -1.5659779872       -1.1280367391
 H         -3.1008329694        0.3548568760       -0.2663741052
 C         -2.7879951521       -1.0425387277        1.3424966971
 C          2.6068342409       -1.5811742193       -1.2802607198
 C          2.8702118797       -1.0283610133        1.1715505625
 H          3.0763404314        0.3497762053       -0.4707977242
 C          1.6467856297        2.3994178739        0.1439543322
 C         -1.6323105889        2.4012685796        0.2480510684
 H         -3.7514364898       -1.7586011939       -1.2236953931
 H         -2.2020005148       -2.5037569718       -0.8719317164
 H         -2.3160490614       -1.2229720608       -2.0907709516
 H         -2.1695239826       -1.9058691519        1.5748550815
 H         -3.8299293315       -1.3453742907        1.3838444251
 H         -2.6219060297       -0.2809046824        2.1002955452
 H          2.1717846760       -1.2507385316       -2.2201513698
 H          2.1423539505       -2.5161992137       -0.9803563821
 H          3.6630496740       -1.7739568748       -1.4447665233
 H          2.2693387908       -1.8893256914        1.4534990820
 H          2.7530547567       -0.2583854727        1.9299991260
 H          3.9129867159       -1.3301447327        1.1480689482
 H         -2.2992761542        2.2278248147        1.0903581549
 H         -2.2364258712        2.5334592921       -0.6487947507
 H         -1.0871450187        3.3220847817        0.4271105327
 H          1.1143094427        3.3225162498        0.3487337575
 H          2.1985279988        2.5254573915       -0.7870904312
 H          2.3611861579        2.2292036562        0.9473924221
  34
        -39.85505960
 N         -1.0925625427       -0.0303855590       -0.0919760967
 C         -0.0157726362       -0.7934817969       -0.2533941801
 N          1.0796122049       -0.0416479137       -0.1829624877
 H         -0.0304720195       -1.8490916104       -0.4234856321
 C          0.6945671530        1.2552636486        0.0506835214
 C         -0.6770716673        1.2604928964        0.1059719328
 C         -2.4719705643       -0.5004896043       -0.0680955791
 C          2.4506430903       -0.5312749523       -0.2761321546
 C         -2.7170124950       -1.5149989821       -1.1807174667
 H         -3.1034410970        0.3745737189       -0.2389289350
 C         -2.7785826354       -1.0865025596        1.3095080522
 C          2.5333372496       -1.7780998750       -1.1495888444
 C          2.9806303476       -0.7991276166        1.1325083761
 H          3.0389623071        0.2610269887       -0.7474591398
 C          1.6135365077        2.4109665108        0.2099303041
 C         -1.6000526184        2.4001569358        0.3229875264
 H         -2.2301037377       -2.4630931172       -0.9710313548
 H         -2.3634502689       -1.1351269125       -2.1360138732
 H         -3.7838809742       -1.7013965898       -1.2637145594
 H         -2.5971146803       -0.3550209443        2.0930034244
 H         -2.1625205250       -1.9616715059        1.5000402159
 H         -3.8217120628       -1.3845653788        1.3542296530
 H          2.1145146260       -2.6458826840       -0.6476180680
 H          3.5777768837       -1.9915598269       -1.3590283897
 H          2.0236308676       -1.6254089510       -2.0975697116
 H          2.9273197979        0.0948122428        1.7482977279
 H          4.0173187260       -1.1175072381        1.0774508393
 H          2.4038942872       -1.5868489630        1.6111417792
 H         -2.2313876919        2.5593189320       -0.5504239757
 H         -1.0267595400        3.3045107623        0.4990530210
 H         -2.2432401539        2.2240462719        1.1832829283
 H          2.6544888320        2.1144455271        0.1469648145
 H          1.4517412666        2.8835305298        1.1773432983
 H          1.4184027613        3.1539438054       -0.5617408930
  34
        -39.85282082
 N         -1.1705013351       -0.0863807050       -0.0576337216
 C         -0.1648961974       -0.9492997308       -0.1440089549
 N          0.9948759874       -0.3061697235       -0.0331993274
 H         -0.2655652549       -2.0060303719       -0.2850001863
 C          0.7255337244        1.0315341672        0.1318050297
 C         -0.6419882424        1.1656712633        0.1247739046
 C         -2.5869988314       -0.4290472214       -0.0922173371
 C          2.2788409880       -0.9995833698       -0.1257573523
 C         -2.8756025513       -1.4092270411       -1.2252591661
 H         -3.1304354904        0.4997113605       -0.2794676096
 C         -3.0008383015       -0.9943781030        1.2656389195
 C          3.1944753126       -0.6655629042        1.0480752140
 C          2.9358336235       -0.7273648738       -1.4775970596
 H          2.0319203709       -2.0648578930       -0.0735780013
 C          1.7418576476        2.0981530876        0.3050844863
 C         -1.4801079691        2.3798861907        0.2766139137
 H         -2.4551668377       -1.0521601590       -2.1620996571
 H         -3.9505250169       -1.5032124077       -1.3497041223
 H         -2.4784964599       -2.3970928485       -1.0098575509
 H         -2.7825778847       -0.2889289448        2.0635498506
 H         -2.4779465504       -1.9251793723        1.4703764792
 H         -4.0683201709       -1.1930478674        1.2667562937
 H          3.9890084980       -1.4051354976        1.0943670588
 H          2.6455671566       -0.6999078857        1.9857558092
 H          3.6541865230        0.3103343599        0.9385957599
 H          3.2311950423        0.3122102871       -1.5801028043
 H          2.2598282408       -0.9794085074       -2.2910144737
 H          3.8269222846       -1.3414297855       -1.5695777635
 H         -0.8539965192        3.2433784081        0.4746847716
 H         -2.1764393812        2.2678225956        1.1056936375
 H         -2.0520663130        2.5719617179       -0.6305719490
 H          1.2910085292        3.0661051535        0.1076523035
 H          2.5757073820        1.9683828541       -0.3776637636
 H          2.1240169554        2.1039834806        1.3249319098
  34
        -39.85219002
 N         -1.1694303420       -0.0994560332        0.0805918027
 C         -0.1617834347       -0.9618938162        0.0054880225
 N          0.9974452623       -0.3063797091       -0.0121950955
 H         -0.2602471540       -2.0274699714       -0.0321009266
 C          0.7245150736        1.0377467384        0.0498615769
 C         -0.6429829558        1.1643921785        0.1050208893
 C         -2.5846745825       -0.4482033155        0.0860585500
 C          2.2805271512       -1.0034073779       -0.0877010185
 C         -3.0086210717       -0.8590781762       -1.3229673098
 H         -3.1284295750        0.4525013552        0.3793537650
 C         -2.8598603044       -1.5493985313        1.1058393359
 C          3.1146328588       -0.7629684193        1.1687108592
 C          3.0192406307       -0.6578769971       -1.3787552238
 H          2.0252871947       -2.0676848355       -0.1213618712
 C          1.7079468888        2.1511381894        0.0564517811
 C         -1.4636807093        2.3968987891        0.1812399034
 H         -2.4900749892       -1.7621657342       -1.6344389849
 H         -2.7944067100       -0.0688430546       -2.0382353300
 H         -4.0765733526       -1.0545323153       -1.3386098599
 H         -3.9331680915       -1.6723736170        1.2177902194
 H         -2.4442967257       -1.2898354302        2.0763312391
 H         -2.4467585229       -2.5016762257        0.7857680364
 H          3.4829092788        0.2553325605        1.2307084852
 H          3.9715862577       -1.4306649184        1.1568431009
 H          2.5288610275       -0.9755699331        2.0597179945
 H          3.8824825524       -1.3099959466       -1.4767904813
 H          3.3695872404        0.3686146602       -1.3911685689
 H          2.3735036865       -0.8152662368       -2.2392914200
 H         -0.8182281517        3.2683630068        0.1471192027
 H         -2.0326643285        2.4277369110        1.1096265000
 H         -2.1622827181        2.4515489777       -0.6519408926
 H          1.5403825919        2.7973163585       -0.8040701641
 H          2.7299532576        1.7978505698        0.0243279820
 H          1.5799390982        2.7506698626        0.9563935275
  34
        -39.85184145
 N         -1.1647389732       -0.1163549767        0.1774066179
 C         -0.1450244675       -0.9685939805        0.2053405285
 N          1.0052147708       -0.3079870080        0.0905826346
 H         -0.2268686503       -2.0307074339        0.3105353100
 C          0.7147799368        1.0277539465       -0.0277966053
 C         -0.6533853775        1.1470884152        0.0262290909
 C         -2.5774317200       -0.4760994233        0.2287914453
 C          2.2980006374       -0.9895071046        0.0682289425
 C         -3.1147220198       -0.5825802032       -1.1983027765
 H         -3.0915669441        0.3318065739        0.7571760676
 C         -2.7905650848       -1.7717117360        1.0031443517
 C          3.2703440608       -0.3950598038        1.0824964926
 C          2.8672139250       -1.0040570543       -1.3491441105
 H          2.0836430945       -2.0217598507        0.3631386259
 C          1.6956447070        2.1320118945       -0.1608305971
 C         -1.4538662280        2.3947021959       -0.0605472446
 H         -4.1785548592       -0.7981537509       -1.1720704994
 H         -2.6139623487       -1.3862143401       -1.7328269909
 H         -2.9647148013        0.3453675614       -1.7437232832
 H         -2.2857739580       -1.7394098055        1.9655411970
 H         -2.4452726642       -2.6348673557        0.4405104226
 H         -3.8539142621       -1.9009420373        1.1845195191
 H          4.0955224352       -1.0871003393        1.2254369089
 H          2.7820252196       -0.2477271415        2.0425007209
 H          3.6817528091        0.5488541590        0.7426467027
 H          2.1504287448       -1.4299142094       -2.0469856627
 H          3.7656188007       -1.6140894018       -1.3654763297
 H          3.1311433818       -0.0065964483       -1.6865012075
 H         -1.1496702481        3.0885514535        0.7210975565
 H         -2.5162654197        2.2038808727        0.0419223959
 H         -1.2865973620        2.8796376484       -1.0213780290
 H          1.1884461456        3.0161325278       -0.5358968236
 H          2.4971260456        1.8778319811       -0.8473596536
 H          2.1317165142        2.3778290029        0.8064906224
  34
        -39.84947784
 N         -1.0910626131       -0.3798350088        0.0278406667
 C         -0.0002162638       -1.1396977323       -0.0007720783
 N          1.0909294794       -0.3802139432       -0.0282550877
 H         -0.0004432689       -2.2116282928       -0.0015397624
 C          0.6879273118        0.9317780738       -0.0113381233
 C         -0.6875640276        0.9320186490        0.0128856100
 C         -2.4374984091       -0.9495939131        0.0397556523
 C          2.4370932289       -0.9505831831       -0.0414660880
 C         -3.2874184705       -0.3750286440        1.1690798092
 H         -2.2931766689       -2.0179953954        0.2304074008
 C         -3.0965770939       -0.7941778880       -1.3294215124
 C          3.0963965461       -0.7982703676        1.3279401694
 C          3.2871384871       -0.3742015904       -1.1697468133
 H          2.2922562371       -2.0185259130       -0.2342704075
 C          1.5897261554        2.1100815338       -0.0314358305
 C         -1.5888972731        2.1106537860        0.0349190349
 H         -3.6441737613        0.6231262582        0.9408918596
 H         -2.7243385853       -0.3496680285        2.0986305330
 H         -4.1537570099       -1.0139531313        1.3159599581
 H         -3.2976645397        0.2461587952       -1.5652672632
 H         -4.0420329664       -1.3286949077       -1.3308880593
 H         -2.4648111980       -1.2124526516       -2.1092234550
 H          4.0421273160       -1.3323356116        1.3278241513
 H          2.4650650573       -1.2187791396        2.1069164406
 H          3.2970246352        0.2415978635        1.5662551229
 H          4.1535924807       -1.0128090749       -1.3173558319
 H          3.6437276383        0.6236255717       -0.9399289111
 H          2.7242965400       -0.3475081037       -2.0994129843
 H         -2.4620374813        1.9543578881       -0.5901748311
 H         -1.0590160357        2.9818044547       -0.3382961453
 H         -1.9218569852        2.3222591715        1.0503608023
 H          1.9234001783        2.3227847779       -1.0464151816
 H          2.4624056104        1.9526728812        0.5940421442
 H          1.0599498202        2.9810009891        0.3424788750
