  34
        -39.85626139
 N         -1.0818365399       -0.0366845138        0.0885824150
 C         -0.0004923358       -0.8041521349       -0.0015067161
 N          1.0814746611       -0.0375722149       -0.0913551894
 H         -0.0009352702       -1.8738793229       -0.0018187172
 C          0.6845121058        1.2760576590       -0.0544037835
 C         -0.6837925573        1.2766166494        0.0520186505
 C         -2.4561749525       -0.5184256036        0.1537236207
 C          2.4556624615       -0.5199959164       -0.1543381278
 C         -2.9103222911       -0.9329866302       -1.2451026568
 H         -3.0665655415        0.3184933653        0.5000714424
 C         -2.5771022767       -1.6664557248        1.1514329486
 C          2.5764372382       -1.6739502689       -1.1451660495
 C          2.9098318164       -0.9264741381        1.2468740263
 H          3.0661366992        0.3148408243       -0.5055761665
 C          1.6363417337        2.4107326667       -0.1280534380
 C         -1.6345845306        2.4121398247        0.1261989231
 H         -3.9532341254       -1.2336913386       -1.2147410883
 H         -2.3213301847       -1.7714748864       -1.6080435795
 H         -2.8117361479       -0.1080498717       -1.9463579702
 H         -2.1242608974       -1.4008375504        2.1034490078
 H         -2.1118471831       -2.5731331756        0.7754130862
 H         -3.6281824074       -1.8796638453        1.3234184081
 H          3.6275370810       -1.8868136901       -1.3175003416
 H          2.1217938250       -1.4148069735       -2.0981076973
 H          2.1130971171       -2.5789652212       -0.7627865730
 H          3.9526354235       -1.2277266840        1.2182792299
 H          2.3204490009       -1.7626149027        1.6145901106
 H          2.8114814633       -0.0974815706        1.9433577010
 H         -2.1591538864        2.4160724234        1.0809848315
 H         -2.3720557726        2.3542585796       -0.6723676857
 H         -1.0997758885        3.3512156282        0.0291181980
 H          1.1019595764        3.3504058200       -0.0345754523
 H          2.1639242883        2.4122646675       -1.0811603103
 H          2.3713211966        2.3539460513        0.6728972684
