  14
  -14.0050766800000       5.042635047921636E-002 !mtd2
 C         -1.5433368426        0.5838424187       -0.1376598043
 C         -0.7326140622       -0.6285096624        0.3103242979
 H         -1.1677636337        1.5174207456        0.2796734994
 H         -2.5690403416        0.4796186894        0.2022411349
 H         -1.5639106382        0.6585988238       -1.2221649133
 C          0.6583825328       -0.6595804789       -0.3082277406
 H         -1.2500759578       -1.5366555161        0.0028897622
 H         -0.6599338418       -0.6513597133        1.3989456715
 N          1.4321333059        0.5475201761        0.1203278481
 H          0.5871709368       -0.6482712732       -1.3969037486
 H          1.2028131378       -1.5523465755        0.0003764891
 H          2.3513805356        0.5953841590       -0.3342152888
 H          1.5617782272        0.5383306985        1.1403989988
 H          0.8816783508        1.3828582386       -0.1279396016
  14
  -14.0050766800000       5.042635047921636E-002 !md1
 C         -1.5408258123        0.5857042428        0.1582841543
 C         -0.7380225549       -0.6321529402       -0.2890887668
 H         -1.5420005239        0.6738929808        1.2419935469
 H         -2.5724553609        0.4772939563       -0.1618942990
 H         -1.1729586236        1.5140189484       -0.2773151999
 C          0.6640525427       -0.6558305586        0.3043286649
 H         -0.6852067593       -0.6687788363       -1.3784841314
 H         -1.2497690175       -1.5362392334        0.0391626287
 N          1.4297282877        0.5458071334       -0.1529791764
 H          1.2028406392       -1.5524070564       -0.0031430455
 H          0.6126612482       -0.6312400339        1.3938854546
 H          1.5402143029        0.5242123047       -1.1751603393
 H          2.3572997771        0.5990076622        0.2836818985
 H          0.8838533726        1.3841656577        0.0953507126
  14
  -14.0050766700000       5.042581687295599E-002 !mtd12
 C         -1.5407313964        0.5856476709        0.1583338723
 C         -0.7380199273       -0.6321963240       -0.2892326023
 H         -1.5416387230        0.6738391427        1.2420561708
 H         -2.5724058779        0.4771143166       -0.1616202429
 H         -1.1730018659        1.5139887648       -0.2773143151
 C          0.6638836262       -0.6557188235        0.3045114405
 H         -0.6848302182       -0.6683892345       -1.3786141875
 H         -1.2496883474       -1.5365254475        0.0385073004
 N          1.4297329888        0.5457879417       -0.1530555367
 H          1.2027125313       -1.5524011078       -0.0025843568
 H          0.6122326341       -0.6307188806        1.3940627098
 H          2.3573192396        0.5987732999        0.2836963362
 H          0.8841894924        1.3843984324        0.0951153868
 H          1.5403813602        0.5239733965       -1.1752229281
  14
  -14.0050766600000       5.042528327243697E-002 !mtd2
 C         -1.5410928753        0.5855347259        0.1583673819
 C         -0.7379186599       -0.6319418615       -0.2893423672
 H         -2.5725431411        0.4774067608       -0.1624731957
 H         -1.1728610767        1.5141425665       -0.2762898841
 H         -1.5429527047        0.6729934060        1.2421356046
 C          0.6639344033       -0.6557043477        0.3045531915
 H         -0.6845904039       -0.6679947135       -1.3787105704
 H         -1.2495977921       -1.5363171497        0.0381758258
 N          1.4299410771        0.5456533736       -0.1530311993
 H          1.2026658413       -1.5525255243       -0.0022815478
 H          0.6121944796       -0.6303886286        1.3940818667
 H          1.5414007066        0.5234540201       -1.1751042430
 H          2.3571988763        0.5990337454        0.2843684719
 H          0.8839594539        1.3842593302        0.0942525136
  14
  -14.0050766600000       5.042528327243697E-002 !md1
 C         -1.5410518805        0.5855408069        0.1583697294
 C         -0.7379384855       -0.6319810856       -0.2893458426
 H         -1.1728904630        1.5140740423       -0.2763563261
 H         -1.5428448508        0.6731198602        1.2421009730
 H         -2.5725262795        0.4773326077       -0.1623997475
 C          0.6638981730       -0.6556760467        0.3045794066
 H         -0.6845123906       -0.6679505675       -1.3787308997
 H         -1.2496263593       -1.5363796028        0.0381017510
 N          1.4299384517        0.5456671728       -0.1530436158
 H          1.2025729875       -1.5525092733       -0.0023094078
 H          0.6122139027       -0.6304557142        1.3940989849
 H          2.3576773238        0.5985031077        0.2834220984
 H          0.8846396911        1.3843632054        0.0953270963
 H          1.5403866435        0.5238320831       -1.1752260900
  14
  -14.0050766500000       5.042474967746967E-002 !mtd10
 C         -1.5432810482        0.5838983058       -0.1375614219
 C         -0.7326603650       -0.6285505844        0.3101776532
 H         -1.5632096565        0.6592164881       -1.2220853048
 H         -1.1679878611        1.5172410910        0.2806091537
 H         -2.5691710635        0.4794466810        0.2017434516
 C          0.6584955258       -0.6596571775       -0.3080807527
 H         -1.2502696681       -1.5365162850        0.0024099295
 H         -0.6602891901       -0.6516907687        1.3988033317
 N          1.4320329071        0.5475490402        0.1202427468
 H          0.5875081494       -0.6484901431       -1.3967145877
 H          1.2030706986       -1.5522402283        0.0006540589
 H          1.5609108544        0.5388127524        1.1404733865
 H          0.8817958103        1.3828254706       -0.1289684388
 H          2.3516743058        0.5953077661       -0.3336168313
  14
  -14.0050766500000       5.042474967746967E-002 !mtd6
 C         -1.5407396970        0.5858002363        0.1582177981
 C         -0.7381080012       -0.6322154605       -0.2888799367
 H         -2.5725117039        0.4774257598       -0.1614447141
 H         -1.1729669866        1.5138801760       -0.2779299694
 H         -1.5414391673        0.6745122664        1.2418486804
 C          0.6641698609       -0.6560338384        0.3040743879
 H         -0.6855234138       -0.6690103199       -1.3782557641
 H         -1.2497136027       -1.5362891784        0.0396306326
 N          1.4295773353        0.5459334207       -0.1528910083
 H          1.2029744549       -1.5523980530       -0.0040139163
 H          0.6131755054       -0.6318209293        1.3936587671
 H          2.3573315235        0.5983995510        0.2835761763
 H          0.8840797619        1.3843162606        0.0962466572
 H          1.5397644207        0.5251793733       -1.1751322457
  14
  -14.0050766400000       5.042421608824360E-002 !mtd7
 C         -1.5432952293        0.5839623452       -0.1375097243
 C         -0.7327190710       -0.6286232245        0.3100615929
 H         -1.1671051207        1.5176127042        0.2792532179
 H         -2.5686995483        0.4800439991        0.2033837405
 H         -1.5648039169        0.6583487354       -1.2220208159
 C          0.6584693064       -0.6597334802       -0.3079779053
 H         -1.2501666633       -1.5366213755        0.0021151160
 H         -0.6603301434       -0.6518868771        1.3986811473
 N          1.4321046356        0.5476734246        0.1201924286
 H          0.5877125832       -0.6489634362       -1.3966699946
 H          1.2028977664       -1.5522502602        0.0013410114
 H          1.5610072112        0.5391813200        1.1403627385
 H          0.8820013729        1.3829261650       -0.1291536417
 H          2.3517030707        0.5948050717       -0.3337437174
  14
  -14.0050766400000       5.042421608824360E-002 !mtd13
 C         -1.5402239365        0.5860109366        0.1581670731
 C         -0.7381994876       -0.6325267359       -0.2886789643
 H         -2.5723958129        0.4774106495       -0.1602528126
 H         -1.1729319738        1.5136866942       -0.2793156303
 H         -1.5397612844        0.6756926400        1.2417418362
 C          0.6642313820       -0.6562150295        0.3039094878
 H         -0.6861008372       -0.6699969742       -1.3780489870
 H         -1.2498935771       -1.5362731724        0.0406076372
 N          1.4291640605        0.5461526319       -0.1528839800
 H          1.2032349858       -1.5523019609       -0.0046296000
 H          0.6134448347       -0.6324342948        1.3935225905
 H          0.8833880107        1.3842094930        0.0966187811
 H          1.5390685338        0.5255608653       -1.1751462099
 H          2.3570720051        0.5989523766        0.2831636412
  14
  -14.0050766400000       5.042421608824360E-002 !mtd8
 C         -1.5435729161        0.5838241428       -0.1376806675
 C         -0.7325353913       -0.6283863753        0.3103304399
 H         -2.5693841942        0.4790422209        0.2015744642
 H         -1.5636264550        0.6590045656       -1.2221589978
 H         -1.1686748457        1.5174337247        0.2801807148
 C          0.6584364781       -0.6596071773       -0.3082812335
 H         -1.2499489217       -1.5366969150        0.0031691825
 H         -0.6596076052       -0.6510275319        1.3989671831
 N          1.4322422630        0.5474613855        0.1203712012
 H          0.5871068018       -0.6482231354       -1.3969900628
 H          1.2028481552       -1.5524915759        0.0002148762
 H          2.3518682274        0.5948145086       -0.3335538585
 H          1.5610516508        0.5385869286        1.1406930714
 H          0.8821826803        1.3830192514       -0.1285841461
  14
  -14.0050766400000       5.042421608824360E-002 !mtd13
 C         -1.5406396686        0.5857754915        0.1582594298
 C         -0.7380770253       -0.6322551342       -0.2890140232
 H         -1.5413689703        0.6741216104        1.2419254499
 H         -2.5724320791        0.4776459187       -0.1616377355
 H         -1.1724189502        1.5138767004       -0.2774355564
 C          0.6640390928       -0.6559839585        0.3042184795
 H         -0.6853216286       -0.6687743914       -1.3784013555
 H         -1.2497686911       -1.5363733111        0.0393008503
 N          1.4295482613        0.5459393149       -0.1529577672
 H          1.2029877921       -1.5523738106       -0.0035924695
 H          0.6127628236       -0.6315439342        1.3938161275
 H          0.8832983858        1.3842016305        0.0948683402
 H          1.5411146481        0.5241538500       -1.1750074664
 H          2.3567186861        0.5993519879        0.2846605129
  14
  -14.0050766300000       5.042368250456913E-002 !mtd4
 C         -1.5432325192        0.5840326237       -0.1374563580
 C         -0.7326518811       -0.6285965205        0.3100111276
 H         -2.5690049764        0.4798895718        0.2024411591
 H         -1.5639014566        0.6589579210       -1.2219131346
 H         -1.1676117400        1.5175552293        0.2800838479
 C          0.6586616705       -0.6598493784       -0.3079542110
 H         -1.2501058169       -1.5364794545        0.0019547909
 H         -0.6603636192       -0.6519501173        1.3985731796
 N          1.4318803990        0.5476421628        0.1201619078
 H          0.5878276624       -0.6492771828       -1.3966220329
 H          1.2031342796       -1.5523161977        0.0014575312
 H          1.5611225964        0.5390319778        1.1403090799
 H          0.8812221691        1.3828861900       -0.1284081795
 H          2.3511733351        0.5955579668       -0.3342202267
  14
  -14.0050766200000       5.042314892663576E-002 !mtd10
 C         -1.5433196749        0.5840118654       -0.1374756102
 C         -0.7325662893       -0.6285009463        0.3100377446
 H         -1.5640002170        0.6588696725       -1.2219979053
 H         -1.1673187475        1.5174028417        0.2800315716
 H         -2.5690307507        0.4799085512        0.2026144209
 C          0.6586401212       -0.6598887255       -0.3080167634
 H         -1.2501571113       -1.5364132759        0.0021715804
 H         -0.6601720533       -0.6517779960        1.3986494735
 N          1.4318640265        0.5476159637        0.1202137239
 H          0.5878463716       -0.6491248272       -1.3967119159
 H          1.2031748303       -1.5523934894        0.0012552688
 H          0.8814628692        1.3827574530       -0.1288717811
 H          2.3513660410        0.5953450361       -0.3338826998
 H          1.5608241640        0.5392233493        1.1403355797
  14
  -14.0050766100000       5.042261535425388E-002 !mtd7
 C         -1.5436566480        0.5837563316       -0.1377378129
 C         -0.7325485758       -0.6283467723        0.3104197656
 H         -2.5693630096        0.4791747955        0.2019358394
 H         -1.5640562344        0.6585001465       -1.2221874521
 H         -1.1686467294        1.5174910393        0.2797119847
 C          0.6584111547       -0.6594766519       -0.3083450214
 H         -1.2498682529       -1.5367267343        0.0034292260
 H         -0.6595876115       -0.6507691970        1.3990295464
 N          1.4323579847        0.5473754107        0.1204049173
 H          0.5867868614       -0.6477791111       -1.3969745326
 H          1.2027867979       -1.5524775534       -0.0002601405
 H          0.8808510348        1.3828541810       -0.1255235934
 H          2.3506684418        0.5963015813       -0.3360216388
 H          1.5640927347        0.5368683797        1.1402813004
  14
  -14.0050766000000       5.042208178761299E-002 !mtd5
 C         -1.5433804757        0.5838640393       -0.1375941865
 C         -0.7327458437       -0.6286154673        0.3102268981
 H         -1.5637770860        0.6589753643       -1.2220616674
 H         -1.1679931975        1.5173273595        0.2801345988
 H         -2.5691291687        0.4795156566        0.2020480363
 C          0.6583733713       -0.6595128714       -0.3080531853
 H         -1.2501902021       -1.5366729128        0.0024694831
 H         -0.6602033813       -0.6517368088        1.3988427871
 N          1.4322519519        0.5475457984        0.1202536723
 H          0.5872173495       -0.6484852664       -1.3967178654
 H          1.2028335579       -1.5521978286        0.0007212944
 H          2.3512630135        0.5955238718       -0.3349972642
 H          1.5627325349        0.5381458649        1.1402866516
 H          0.8818941092        1.3830244491       -0.1280946451
  14
  -14.0050766000000       5.042208178761299E-002 !mtd10
 C         -1.5403987204        0.5858404744        0.1582226094
 C         -0.7381612778       -0.6324566378       -0.2889098991
 H         -1.1721522328        1.5139493643       -0.2773143165
 H         -1.5419922395        0.6741820128        1.2419820763
 H         -2.5719080478        0.4775828212       -0.1622224082
 C          0.6640062507       -0.6558585379        0.3042244836
 H         -0.6855260213       -0.6695526964       -1.3783125646
 H         -1.2499202751       -1.5363603221        0.0398761933
 N          1.4294880307        0.5459767941       -0.1529875893
 H          1.2026416787       -1.5523097065       -0.0038654237
 H          0.6131070149       -0.6316847539        1.3938277135
 H          1.5390242040        0.5251279750       -1.1753006009
 H          2.3575418123        0.5986152640        0.2828520566
 H          0.8841171972        1.3843477246        0.0965148083
  14
  -14.0050765900000       5.042154822652346E-002 !mtd1
 C         -1.5428288985        0.5841662336       -0.1373967087
 C         -0.7327579461       -0.6288913391        0.3099775452
 H         -1.1687159695        1.5169178898        0.2831152954
 H         -2.5693491854        0.4788572364        0.1996993006
 H         -1.5608138693        0.6613728486       -1.2217741170
 C          0.6585869094       -0.6599424016       -0.3078384122
 H         -1.2503013663       -1.5366586077        0.0015609048
 H         -0.6606006746       -0.6526476185        1.3986111800
 N          1.4316547527        0.5478391302        0.1200888898
 H          0.5878271440       -0.6493885209       -1.3965455147
 H          1.2031515635       -1.5523457504        0.0015853691
 H          0.8804162949        1.3827261496       -0.1285378825
 H          2.3506361737        0.5961112291       -0.3348237544
 H          1.5617230989        0.5392034555        1.1400893639
  14
  -14.0050765400000       5.041888050595546E-002 !mtd2
 C         -1.5398526740        0.5861786367        0.1580851990
 C         -0.7383113331       -0.6328026250       -0.2884333149
 H         -1.1723598012        1.5135845095       -0.2796994016
 H         -1.5394455155        0.6762111143        1.2416240058
 H         -2.5719441605        0.4775338376       -0.1603696811
 C          0.6642584549       -0.6562933169        0.3037289121
 H         -0.6864950981       -0.6707417425       -1.3778166249
 H         -1.2500520504       -1.5363057599        0.0414524145
 N          1.4289080582        0.5463197695       -0.1528512273
 H          1.2031528777       -1.5522197244       -0.0054596909
 H          0.6139143189       -0.6331074232        1.3933812744
 H          0.8839948123        1.3842930437        0.0987089488
 H          1.5368529283        0.5269871672       -1.1753443733
 H          2.3576501553        0.5981708079        0.2815294212
  14
  -14.0035693200000       1.023111215553451E-002 !input
 C         -1.9629607005        0.0348555473       -0.2838309772
 C         -0.6441311278       -0.0007264330        0.4825620168
 H         -2.7957398958        0.0323982748        0.4119169272
 H         -2.0578955434       -0.8327597674       -0.9304521634
 H         -2.0319592625        0.9314183436       -0.8931767309
 C          0.5296401459        0.0025055984       -0.4872598042
 H         -0.6140976409       -0.8999054582        1.1006607344
 H         -0.5880712911        0.8702794329        1.1380595802
 N          1.8310797976       -0.0322922906        0.2544058657
 H          0.5075859290        0.9020752447       -1.1040893725
 H          0.4815486053       -0.8691828738       -1.1415051624
 H          1.9008235064        0.7867855775        0.8732741808
 H          2.6317985546       -0.0304553506       -0.3898902155
 H          1.8763421476       -0.8784608514        0.8381016688
  14
  -14.0035693100000       1.023100389099732E-002 !mtd4
 C         -1.9627888293        0.0349097369       -0.2838491549
 C         -0.6441256678       -0.0008027266        0.4826349297
 H         -2.7955568717        0.0340128463        0.4118653889
 H         -2.0585319910       -0.8334732718       -0.9293358101
 H         -2.0311217551        0.9307011595       -0.8944135022
 C          0.5296369555        0.0024714508       -0.4873106874
 H         -0.6142458473       -0.9001031870        1.1005763871
 H         -0.5879230637        0.8700847430        1.1382620933
 N          1.8309263258       -0.0322458728        0.2544189293
 H          0.5075039698        0.9020522199       -1.1040738076
 H          0.4815757172       -0.8691875996       -1.1415853798
 H          2.6315830421       -0.0301806085       -0.3898950431
 H          1.8764688695       -0.8784240266        0.8379562710
 H          1.9006406137        0.7867355745        0.8733153997
  14
  -14.0035693000000       1.023089562762501E-002 !gc
 C         -1.9628743271        0.0343238318       -0.2838532762
 C         -0.6441216915       -0.0001166093        0.4826185322
 H         -2.0326105669        0.9307102168       -0.8933379275
 H         -2.7956399619        0.0312893552        0.4118721897
 H         -2.0570771182       -0.8334720241       -0.9303055852
 C          0.5296442737        0.0032838018       -0.4872608012
 H         -0.6136106394       -0.8989976410        1.1011298386
 H         -0.5886158528        0.8712058001        1.1377383558
 N          1.8309610580       -0.0329347546        0.2543933611
 H          0.5081419997        0.9033180617       -1.1034290256
 H          0.4811001077       -0.8678770521       -1.1421712994
 H          2.6315371778       -0.0314604717       -0.3900265363
 H          1.8757967636       -0.8794772328        0.8375704699
 H          1.9017723711        0.7856772832        0.8736368711
  14
  -14.0035692800000       1.023067910429803E-002 !mtd2
 C         -1.9628540606        0.0342397366       -0.2838231840
 C         -0.6441539595        0.0000099632        0.4825895064
 H         -2.7956458148        0.0320498314        0.4118980506
 H         -2.0573715787       -0.8340049391       -0.9296076748
 H         -2.0321919777        0.9301997579       -0.8940096574
 C          0.5296865267        0.0032848875       -0.4872743325
 H         -0.6137521475       -0.8989040546        1.1011682300
 H         -0.5886746676        0.8713752909        1.1376651910
 N          1.8309570491       -0.0329595876        0.2543990797
 H          0.5082578631        0.9032686803       -1.1034902747
 H          0.4811448820       -0.8679311595       -1.1421436465
 H          1.8749859364       -0.8789645245        0.8383819314
 H          1.9021517759        0.7862396141        0.8728982093
 H          2.6315852196       -0.0325862344       -0.3900139366
  14
  -14.0035692800000       1.023067910429803E-002 !mtd14
 C         -1.9628768634        0.0347007013       -0.2837860417
 C         -0.6441003653       -0.0004322784        0.4825399661
 H         -2.0327058577        0.9320888916       -0.8918967730
 H         -2.7955576848        0.0305807501        0.4120271382
 H         -2.0570900389       -0.8321795028       -0.9315128909
 C          0.5296798782        0.0024164058       -0.4873571072
 H         -0.6139502810       -0.8993395295        1.1010440491
 H         -0.5880760907        0.8708478596        1.1377025649
 N          1.8309300297       -0.0323230611        0.2544656992
 H          0.5076482010        0.9017837455       -1.1045374370
 H          0.4815817485       -0.8695198960       -1.1413087641
 H          1.9007313515        0.7866715615        0.8732620076
 H          2.6317234965       -0.0303133749       -0.3897221256
 H          1.8762724244       -0.8785975453        0.8378970074
  14
  -14.0035692700000       1.023057084434334E-002 !mtd7
 C         -1.9628549015        0.0343569063       -0.2838702673
 C         -0.6441632629       -0.0002261482        0.4826301066
 H         -2.0575301998       -0.8339667369       -0.9293876574
 H         -2.0321473849        0.9301025536       -0.8942386182
 H         -2.7956315675        0.0324077059        0.4118448555
 C          0.5296641805        0.0034435662       -0.4871896094
 H         -0.6136966541       -0.8993874760        1.1007842863
 H         -0.5885495316        0.8707972914        1.1381474706
 N          1.8309837088       -0.0330028722        0.2543348072
 H          0.5082651170        0.9037401984       -1.1029843358
 H          0.4809436617       -0.8674493545       -1.1424544880
 H          1.8754712115       -0.8792672680        0.8378088934
 H          1.9018789302        0.7857516761        0.8733493246
 H          2.6315026057       -0.0318583443       -0.3901624923
  14
  -14.0035692700000       1.023057084434334E-002 !md5
 C         -1.9628371500        0.0345792175       -0.2838406470
 C         -0.6440942395       -0.0003862854        0.4826068962
 H         -2.0585305519       -0.8339762686       -0.9290025805
 H         -2.0313275596        0.9301967745       -0.8945940696
 H         -2.7953980987        0.0339043857        0.4120591340
 C          0.5296982562        0.0028473671       -0.4873053931
 H         -0.6139586757       -0.8992127843        1.1012217750
 H         -0.5881828013        0.8710486870        1.1376900099
 N          1.8308828656       -0.0326422731        0.2544067894
 H          0.5078810429        0.9026358919       -1.1037578917
 H          0.4813887745       -0.8684930587       -1.1419621828
 H          1.9005543836        0.7855290806        0.8743801113
 H          2.6315472439       -0.0298200686       -0.3898458899
 H          1.8764936792       -0.8795897084        0.8368218836
  14
  -14.0035692500000       1.023035432788997E-002 !mtd10
 C         -1.9629391999        0.0344112645       -0.2837448021
 C         -0.6440687449        0.0000195387        0.4824699160
 H         -2.0577677143       -0.8342368652       -0.9289671810
 H         -2.0322960520        0.9301221924       -0.8943979444
 H         -2.7955102650        0.0327103488        0.4122917657
 C          0.5296993267        0.0025149825       -0.4874141545
 H         -0.6136045027       -0.8984179376        1.1015730685
 H         -0.5883092121        0.8717121283        1.1370163504
 N          1.8309577874       -0.0324894076        0.2545128203
 H          0.5078935816        0.9018375794       -1.1047142973
 H          0.4813660770       -0.8695124742       -1.1412761764
 H          2.6317961842       -0.0336279822       -0.3896491337
 H          1.8746386837       -0.8773467092        0.8401926273
 H          1.9021190157        0.7879845964        0.8712540152
  14
  -14.0035692500000       1.023035432788997E-002 !mtd7
 C         -1.9628950806        0.0347612512       -0.2837822421
 C         -0.6441372170       -0.0005344626        0.4825299320
 H         -2.0322272740        0.9315149782       -0.8927708342
 H         -2.7956021743        0.0319222174        0.4119451449
 H         -2.0576883728       -0.8326212082       -0.9306478237
 C          0.5297032337        0.0023871254       -0.4873242881
 H         -0.6141271759       -0.8995837547        1.1008960172
 H         -0.5881182993        0.8706255043        1.1378156344
 N          1.8309682805       -0.0322828359        0.2544414674
 H          0.5078489534        0.9017903353       -1.1043076208
 H          0.4815908367       -0.8693810765       -1.1414397201
 H          1.8748511808       -0.8768773883        0.8404516322
 H          1.9021855543        0.7884329105        0.8708342576
 H          2.6317103968       -0.0335134831       -0.3898019687
  14
  -14.0002158600000       2.942925954406309E-004 !gc
 C         -1.9662800119        0.0323814620       -0.2839208085
 C         -0.6471552305        0.0000972189        0.4821653355
 H         -2.0379507041        0.9290036977       -0.8927984524
 H         -2.7987014235        0.0275093545        0.4122562508
 H         -2.0593090273       -0.8353554609       -0.9306440057
 C          0.5264011429       -0.0004122907       -0.4887319280
 H         -0.6171097476       -0.8981591112        1.1017485147
 H         -0.5913041264        0.8758374695        1.1315682603
 N          1.8396849633       -0.0284436001        0.2558798804
 H          0.4910220752        0.8923413779       -1.1130403234
 H          0.4685192710       -0.8727411492       -1.1396127350
 H          2.3840470246       -0.8691120940        0.0308252702
 H          1.6501538045       -0.0290688598        1.2678072185
 H          2.4155750047        0.7928924705        0.0376459828
