22
	Energy:      47.8336765
N         -0.91140        4.26189        2.71950
C          0.18311        3.33619        2.74922
N          1.24614        3.95994        2.01205
C          0.76969        5.22752        1.56423
C         -0.49600        5.39797        1.98260
C         -2.20250        4.06250        3.33399
C          2.54115        3.35000        1.80301
H         -2.24032        3.07703        3.84476
H         -2.99504        4.09422        2.55746
H         -2.38778        4.86121        4.08224
H          3.01857        3.15262        2.78554
H          3.21985        3.98882        1.21131
H          2.41279        2.38766        1.26478
C          1.54559        6.23166        0.75011
C         -1.37533        6.59310        1.73167
H         -0.86046        7.37270        1.13446
H         -1.67741        7.03747        2.70251
H         -2.28348        6.27204        1.18082
H          2.56973        5.89685        0.51062
H          1.62372        7.18439        1.31455
H          1.01723        6.41844       -0.20820
H          0.20535        2.34096        3.24093
