15
	Energy:      29.8251012
N         -1.96644       -0.64514        0.33094
C         -1.02131       -1.66806       -0.04735
N          0.16426       -0.90869       -0.36533
C         -0.09982        0.46978       -0.17588
C         -1.35040        0.62143        0.23255
C         -3.32812       -0.87828        0.74513
C          1.41059       -1.49072       -0.80540
H         -3.55876       -1.96449        0.73505
H         -4.02107       -0.35551        0.05300
H         -3.47507       -0.48741        1.77378
H          1.79232       -2.18489       -0.02777
H          2.17595       -0.70852       -0.98829
H          1.24638       -2.05301       -1.74835
Cl         1.05151        1.77503       -0.44115
Cl        -2.13905        2.15167        0.60007
