30
	Energy:      57.5798852
N         -1.76056       -0.44096        0.78165
C         -0.72103       -1.39380        0.44547
N          0.42166       -0.57425        0.09312
H         -1.03414       -2.00541       -0.42851
C          0.05989        0.78519        0.22238
C         -1.24206        0.86472        0.63317
C         -3.08637       -0.78847        1.19889
C          1.69941       -1.08080       -0.31111
C         -3.46046       -2.14297        1.32311
C         -4.04717        0.20172        1.49631
C          1.92454       -2.47190       -0.37593
C          2.76006       -0.21408       -0.65153
H          0.69382        1.63904        0.03326
H         -1.77093        1.78959        0.81094
C         -4.75118       -2.49333        1.72992
H         -2.75755       -2.93657        1.10774
C         -5.33653       -0.15619        1.90258
C          3.16748       -2.97702       -0.76855
C          4.20449       -2.10555       -1.10216
C          4.00077       -0.72652       -1.04353
C         -5.68835       -1.50128        2.01921
H         -6.06476        0.61247        2.12756
H          2.64601        0.85861       -0.62036
H          1.14218       -3.17477       -0.12266
H          3.32627       -4.04679       -0.81370
H          5.16608       -2.49877       -1.40588
H          4.80644       -0.05156       -1.30255
H         -6.68715       -1.77475        2.33404
H         -5.02452       -3.53671        1.82109
H         -3.81787        1.25344        1.41915
