20
	Energy:      19.5361285
N         -2.32458        0.14386        0.23079
C         -1.22922       -0.81662        0.04710
N         -0.09195       -0.17086       -0.62061
C         -3.47570       -0.55345        0.81202
C          0.94606       -1.17621       -0.86805
H         -3.22212       -1.00195        1.79909
H         -3.81685       -1.35928        0.12638
H         -4.32354        0.15304        0.94254
H          1.30510       -1.63080        0.08304
H          1.80759       -0.71296       -1.39549
H          0.54751       -1.98061       -1.52388
C         -1.87760        1.23414        1.11547
C          0.42933        0.91204        0.23235
C         -0.67563        1.93988        0.48466
H         -1.59169        0.83539        2.11688
H         -2.69429        1.97638        1.25352
H         -0.30729        2.74915        1.15114
H         -0.98440        2.38925       -0.48487
H          1.28102        1.42076       -0.27054
H          0.78802        0.50600        1.20701
