  20
  -24.7787822800000       5.555823374232205E-002 !mtd10
 N         -1.1329866362       -0.3676104165       -0.0141792971
 C         -0.0000038820       -1.0620417600        0.0872262530
 N          1.1329845304       -0.3675915360       -0.0140963478
 C         -2.3833758465       -1.0788422683        0.0270270389
 C          2.3833623061       -1.0788753952        0.0268562147
 H         -3.0062538986       -0.7277610541        0.8566414770
 H         -2.1723160391       -2.1370340149        0.1606983567
 H         -2.9414428565       -0.9382975479       -0.9048126102
 H          3.0068483446       -0.7271145477        0.8557156398
 H          2.9408761243       -0.9392948147       -0.9054745631
 H          2.1723060415       -2.1369062847        0.1617129146
 C         -1.2378376592        1.0687814757       -0.2208172450
 C          1.2378658338        1.0688147951       -0.2205567377
 C         -0.0000277847        1.7473938669        0.3534594753
 H         -2.1396345287        1.4367609725        0.2803365648
 H         -1.3309558992        1.2910105423       -1.2939084616
 H          0.0000655028        1.6269470672        1.4394693630
 H          0.0000425820        2.8132159454        0.1213255850
 H          1.3311883734        1.2912817011       -1.2935754595
 H          2.1395084904        1.4367714383        0.2808982186
  20
  -24.7787822700000       5.555764583102055E-002 !mtd6
 N         -1.1329733083       -0.3676027871        0.0139528501
 C         -0.0000132066       -1.0618914011       -0.0886407529
 N          1.1330202872       -0.3675845008        0.0133305574
 C         -2.3834017437       -1.0787311129       -0.0286697416
 C          2.3833845679       -1.0788100437       -0.0280199322
 H         -3.0059289157       -0.7264858725       -0.8580387100
 H         -2.9418247082       -0.9394901974        0.9031432525
 H         -2.1723124344       -2.1367140569       -0.1638012362
 H          3.0073600248       -0.7256132622       -0.8557704856
 H          2.1724710697       -2.1366797525       -0.1647677671
 H          2.9401919721       -0.9409180144        0.9049933615
 C         -1.2377268216        1.0685160658        0.2225871963
 C          1.2378319251        1.0685547588        0.2218415534
 C         -0.0001315317        1.7476566672       -0.3514348629
 H         -1.3300637371        1.2893453869        1.2960227680
 H         -2.1398087238        1.4372362062       -0.2774692715
 H         -0.0000687104        2.8133201543       -0.1186112201
 H         -0.0004697792        1.6278878408       -1.4375215234
 H          2.1395908492        1.4372579508       -0.2788547697
 H          1.3308872337        1.2894639274        1.2952074777
  20
  -24.7787822700000       5.555764583102055E-002 !mtd10
 N         -1.1329638643       -0.3675683646        0.0138192987
 C          0.0000390039       -1.0618801722       -0.0886758616
 N          1.1329826555       -0.3675626280        0.0137596843
 C         -2.3833505422       -1.0787911167       -0.0283777201
 C          2.3833418006       -1.0788445049       -0.0284380507
 H         -2.9412168520       -0.9401082879        0.9038717602
 H         -2.1722630987       -2.1366713972       -0.1642195564
 H         -3.0064002162       -0.7261274156       -0.8571317507
 H          2.1721957518       -2.1367401492       -0.1649511058
 H          2.9408328374       -0.9406618765        0.9040259785
 H          3.0065056678       -0.7257426217       -0.8569423177
 C         -1.2377968221        1.0685203016        0.2221212411
 C          1.2377902788        1.0685682283        0.2222896297
 C          0.0000007445        1.7476508380       -0.3514661246
 H         -1.3306340221        1.2896000631        1.2954754555
 H         -2.1396730302        1.4371900596       -0.2784052933
 H         -0.0001084456        2.8133079473       -0.1186578231
 H         -0.0000457331        1.6279316760       -1.4375763152
 H          2.1396400989        1.4372104229       -0.2782155018
 H          1.3306143741        1.2894899464        1.2956574248
  20
  -24.7787822600000       5.555705792594028E-002 !mtd1
 N         -1.1330139519       -0.3676014749        0.0135327921
 C         -0.0000062175       -1.0618621534       -0.0886929059
 N          1.1329929075       -0.3675466466        0.0136388973
 C         -2.3834202231       -1.0787560260       -0.0285564269
 C          2.3833223134       -1.0788574718       -0.0280114155
 H         -2.1724132566       -2.1364989722       -0.1657384195
 H         -3.0070613129       -0.7251796542       -0.8565119485
 H         -2.9406388735       -0.9411965608        0.9042433116
 H          2.1722026753       -2.1366065894       -0.1649674795
 H          2.9403504916       -0.9411340507        0.9048963534
 H          3.0072445252       -0.7255422662       -0.8558715648
 C         -1.2376212111        1.0684455837        0.2228637416
 C          1.2379287343        1.0686351287        0.2215927561
 C         -0.0002152879        1.7476645516       -0.3514313987
 H         -1.3294746593        1.2887819397        1.2964457756
 H         -2.1398845390        1.4374345754       -0.2766536922
 H         -0.0001229871        2.8133179298       -0.1185773131
 H         -0.0007761282        1.6279148809       -1.4375272398
 H          2.1394636364        1.4371259169       -0.2796830131
 H          1.3315445946        1.2899506209        1.2948273431
  20
  -24.7787822600000       5.555705792594028E-002 !mtd2
 N         -1.1329620855       -0.3675372182       -0.0137082904
 C          0.0000140450       -1.0620811086        0.0872802118
 N          1.1329981943       -0.3676131325       -0.0140630220
 C         -2.3834066823       -1.0788087099        0.0265553417
 C          2.3834439859       -1.0787901897        0.0270451206
 H         -2.9401647677       -0.9395418500       -0.9063089525
 H         -3.0075107150       -0.7264841482        0.8547485113
 H         -2.1724852256       -2.1367980967        0.1621603476
 H          3.0067017285       -0.7269341572        0.8560298465
 H          2.9410607728       -0.9391296357       -0.9052291190
 H          2.1724450937       -2.1368829418        0.1618272449
 C         -1.2378472388        1.0688203650       -0.2205425913
 C          1.2376974288        1.0687665015       -0.2210895209
 C          0.0000784549        1.7472762057        0.3535579102
 H         -2.1396033335        1.4368562461        0.2806182470
 H         -1.3309722084        1.2909870002       -1.2936522829
 H          0.0002733251        1.6265280536        1.4395579657
 H          0.0000926407        2.8131931127        0.1217731192
 H          1.3301365696        1.2907419600       -1.2943015315
 H          2.1397627334        1.4368945959        0.2794249859
  20
  -24.7787822500000       5.555647002708114E-002 !mtd1
 N         -1.1329870414       -0.3676655826        0.0140086396
 C         -0.0000003620       -1.0619304915       -0.0883584949
 N          1.1330020257       -0.3675483759        0.0137065576
 C         -2.3833789760       -1.0787755727       -0.0289138268
 C          2.3833218245       -1.0789128031       -0.0282208157
 H         -3.0056998557       -0.7266366211       -0.8585069268
 H         -2.9421111014       -0.9394964375        0.9027274307
 H         -2.1722252371       -2.1367622049       -0.1639285322
 H          2.9410333527       -0.9403293402        0.9041362499
 H          3.0066349074       -0.7263513951       -0.8568378283
 H          2.1720986346       -2.1367543437       -0.1640797147
 C         -1.2377718197        1.0684713274        0.2226334857
 C          1.2379998363        1.0685733045        0.2214703231
 C         -0.0002008442        1.7478386555       -0.3512130529
 H         -1.3303093347        1.2892262803        1.2960796854
 H         -2.1398108744        1.4371110187       -0.2775692103
 H         -0.0000820204        2.8133196677       -0.1175198240
 H         -0.0007302843        1.6289765298       -1.4373737944
 H          2.1394125533        1.4369929958       -0.2800944034
 H          1.3319425961        1.2900484318        1.2946661947
  20
  -24.7787822500000       5.555647002708114E-002 !mtd2
 N         -1.1330138332       -0.3675294829        0.0132002873
 C          0.0000094985       -1.0618812919       -0.0888234865
 N          1.1329940077       -0.3675591706        0.0134058889
 C         -2.3833099260       -1.0789544584       -0.0278431773
 C          2.3833320695       -1.0789207418       -0.0282070244
 H         -2.1721343356       -2.1368498179       -0.1635470760
 H         -3.0071320035       -0.7266332009       -0.8561915039
 H         -2.9404082570       -0.9401417417        0.9048343434
 H          3.0071716956       -0.7257714321       -0.8561643825
 H          2.1721626236       -2.1366810094       -0.1649545219
 H          2.9404017270       -0.9409976283        0.9046175548
 C         -1.2379480270        1.0685002373        0.2217515581
 C          1.2378416679        1.0684868378        0.2223089826
 C          0.0001073491        1.7479623728       -0.3510006498
 H         -1.3315059342        1.2893669104        1.2950974694
 H         -2.1395471230        1.4372004679       -0.2792712979
 H          0.0000399547        2.8134226463       -0.1172216128
 H          0.0004326330        1.6291839192       -1.4371791437
 H          2.1397487766        1.4372778440       -0.2780645774
 H          1.3306568842        1.2890779004        1.2957586001
  20
  -24.7787822500000       5.555647002708114E-002 !mtd10
 N         -1.1329995421       -0.3676511702        0.0140166410
 C         -0.0000035242       -1.0619086489       -0.0883049773
 N          1.1329994341       -0.3675107655        0.0136183754
 C         -2.3834333692       -1.0787305411       -0.0290678298
 C          2.3833356679       -1.0788991623       -0.0280954626
 H         -2.9418128473       -0.9404043310        0.9029064010
 H         -2.1723350645       -2.1365772338       -0.1652387280
 H         -3.0060077309       -0.7257060394       -0.8580618802
 H          3.0063901456       -0.7269355007       -0.8571778324
 H          2.1720773635       -2.1368637869       -0.1631032795
 H          2.9412399457       -0.9395517121        0.9040170232
 C         -1.2376392661        1.0684472697        0.2229976142
 C          1.2379932490        1.0686363301        0.2213403012
 C         -0.0002740745        1.7477019931       -0.3513893235
 H         -1.3293583290        1.2890192161        1.2965252140
 H         -2.1399693072        1.4372777205       -0.2764957136
 H         -0.0001717659        2.8133443504       -0.1184650429
 H         -0.0010536455        1.6280163416       -1.4374611998
 H          2.1394523516        1.4370533065       -0.2801353787
 H          1.3318044178        1.2901540194        1.2945184415
  20
  -24.7787822400000       5.555588213465195E-002 !mtd4
 N         -1.1330063357       -0.3676762257        0.0140530949
 C         -0.0000143360       -1.0618886663       -0.0886188386
 N          1.1329903500       -0.3676200599        0.0135736872
 C         -2.3834857846       -1.0786636843       -0.0288814501
 C          2.3834279347       -1.0787671679       -0.0279999203
 H         -2.9419039644       -0.9396938451        0.9029872167
 H         -2.1725133758       -2.1366632037       -0.1643715907
 H         -3.0058989538       -0.7261062757       -0.8582782813
 H          2.9402429296       -0.9408154571        0.9050095459
 H          3.0072920589       -0.7253728729       -0.8558933138
 H          2.1725007991       -2.1365734299       -0.1649081989
 C         -1.2377168112        1.0684766859        0.2228770538
 C          1.2379905022        1.0686108378        0.2215004228
 C         -0.0002149009        1.7475962511       -0.3514483697
 H         -1.3297250160        1.2891826431        1.2963497081
 H         -2.1398946348        1.4371907760       -0.2769681533
 H         -0.0001364861        2.8132523607       -0.1185593374
 H         -0.0007871880        1.6278925997       -1.4375407011
 H          2.1394543128        1.4370193457       -0.2799626951
 H          1.3317513050        1.2899862986        1.2946910731
  20
  -24.7787822300000       5.555529424823492E-002 !mtd12
 N         -1.1330012111       -0.3676234366        0.0142203982
 C         -0.0000241879       -1.0619466530       -0.0881709901
 N          1.1329910763       -0.3676324593        0.0138275577
 C         -2.3833858547       -1.0787554298       -0.0287564328
 C          2.3834494823       -1.0787430143       -0.0287093294
 H         -3.0056098607       -0.7267534943       -0.8585229965
 H         -2.9423449488       -0.9392792299        0.9027546956
 H         -2.1722905422       -2.1368016168       -0.1635263163
 H          2.1722876229       -2.1367901586       -0.1631410964
 H          2.9421398809       -0.9389752696        0.9028700785
 H          3.0057102169       -0.7270428603       -0.8584908968
 C         -1.2379503745        1.0685351077        0.2219106899
 C          1.2378892401        1.0684984243        0.2221998794
 C          0.0000546695        1.7477041506       -0.3512617560
 H         -1.3314909251        1.2900334730        1.2951217609
 H         -2.1395531260        1.4369579474       -0.2793228676
 H          0.0001152857        2.8132583688       -0.1179604777
 H          0.0000639809        1.6284466987       -1.4374149078
 H          2.1396310784        1.4370668670       -0.2786234419
 H          1.3310892243        1.2894710127        1.2955427362
  20
  -24.7787822300000       5.555529424823492E-002 !mtd7
 N         -1.1330111547       -0.3675742390       -0.0141538894
 C         -0.0000230319       -1.0619913176        0.0873336510
 N          1.1330002551       -0.3675721212       -0.0138612558
 C         -2.3834103284       -1.0788147428        0.0272188286
 C          2.3833791648       -1.0788891924        0.0264940588
 H         -2.1723912557       -2.1365822542        0.1640410809
 H         -2.9403514177       -0.9409078926       -0.9056849450
 H         -3.0073327560       -0.7255654281        0.8550744836
 H          2.9401657186       -0.9399446791       -0.9065351431
 H          2.1723248509       -2.1369034816        0.1622624555
 H          3.0075822605       -0.7264523623        0.8546347192
 C         -1.2376876681        1.0687686012       -0.2213547401
 C          1.2378935663        1.0688808386       -0.2202940924
 C         -0.0001721205        1.7472651678        0.3536115510
 H         -2.1398380856        1.4370148799        0.2789392741
 H         -1.3298386389        1.2907030809       -1.2945821670
 H         -0.0006609023        1.6262938583        1.4395719342
 H         -0.0001151222        2.8131874186        0.1219697213
 H          1.3313399967        1.2913093279       -1.2933051355
 H          2.1395101377        1.4367897418        0.2812340711
  20
  -24.7787822300000       5.555529424823492E-002 !mtd1
 N         -1.1330089144       -0.3676029977       -0.0143635056
 C         -0.0000272318       -1.0620179031        0.0869176673
 N          1.1329785148       -0.3675977667       -0.0145575427
 C         -2.3834137418       -1.0788111765        0.0273338988
 C          2.3833952523       -1.0787736244        0.0273156660
 H         -2.1722988149       -2.1366792412        0.1634460073
 H         -2.9411354187       -0.9402665386       -0.9051663826
 H         -3.0065563401       -0.7262327219        0.8558382835
 H          2.1722741166       -2.1369905980        0.1605778882
 H          3.0056472456       -0.7279305830        0.8575009455
 H          2.9421588282       -0.9380154866       -0.9040579634
 C         -1.2377822586        1.0688634490       -0.2209393260
 C          1.2378590373        1.0688475252       -0.2207292318
 C         -0.0000279974        1.7471519817        0.3537302680
 H         -2.1397212368        1.4368260340        0.2798914151
 H         -1.3303699392        1.2912555558       -1.2940292341
 H         -0.0001623574        1.6259613531        1.4396703561
 H         -0.0000220196        2.8131185900        0.1223007031
 H          1.3309456902        1.2915060354       -1.2937134955
 H          2.1396262422        1.4366584949        0.2805663798
  20
  -24.7787822100000       5.555411849406364E-002 !mtd11
 N         -1.1329868803       -0.3675932011       -0.0145765200
 C         -0.0000078818       -1.0619504588        0.0874457387
 N          1.1330240653       -0.3675158978       -0.0138100555
 C         -2.3833487431       -1.0788054501        0.0274079553
 C          2.3833327097       -1.0789653776        0.0264182654
 H         -2.9406512735       -0.9409413091       -0.9052717338
 H         -3.0070175018       -0.7255993210        0.8554752891
 H         -2.1722902587       -2.1366161988        0.1640902907
 H          2.1722563748       -2.1367819084        0.1628602717
 H          3.0079194085       -0.7261768495        0.8539756602
 H          2.9396539426       -0.9407179069       -0.9068424092
 C         -1.2377639824        1.0687688678       -0.2213305811
 C          1.2379396540        1.0688711907       -0.2201952809
 C         -0.0001999334        1.7472634107        0.3535980146
 H         -2.1398045739        1.4367901327        0.2793377114
 H         -1.3302584281        1.2910436407       -1.2944608794
 H         -0.0006572086        1.6265069932        1.4395879800
 H         -0.0001190589        2.8131408523        0.1217616596
 H          1.3315269621        1.2914146408       -1.2931899519
 H          2.1394989767        1.4368046003        0.2814677745
  20
  -24.7787822100000       5.555411849406364E-002 !mtd8
 N         -1.1330188330       -0.3676107973       -0.0147410791
 C         -0.0000136658       -1.0619636538        0.0870964364
 N          1.1329847114       -0.3675397209       -0.0143606251
 C         -2.3834684869       -1.0786746059        0.0278916700
 C          2.3834112690       -1.0788194070        0.0268431910
 H         -2.1723793321       -2.1366250814        0.1632991009
 H         -2.9418611314       -0.9397036276       -0.9039696417
 H         -3.0060148434       -0.7262765333        0.8572047200
 H          3.0067149112       -0.7269434845        0.8558146900
 H          2.9409355235       -0.9393617518       -0.9054705691
 H          2.1722277834       -2.1368588196        0.1616880827
 C         -1.2375260422        1.0687714088       -0.2217967777
 C          1.2378687793        1.0689734989       -0.2202420419
 C         -0.0002587345        1.7469583610        0.3540401238
 H         -2.1399827619        1.4370022431        0.2779074296
 H         -1.3288868763        1.2908898316       -1.2950610204
 H         -0.0009329774        1.6248637202        1.4398690764
 H         -0.0001985250        2.8130864048        0.1234271274
 H          1.3311814073        1.2918882486       -1.2931500200
 H          2.1395146720        1.4367260590        0.2813495095
  20
  -24.7787822100000       5.555411849406364E-002 !mtd7
 N         -1.1329772189       -0.3676070072       -0.0142283238
 C         -0.0000010746       -1.0620318687        0.0873419076
 N          1.1329934804       -0.3675634148       -0.0137751641
 C         -2.3833813530       -1.0787768315        0.0274797030
 C          2.3833108113       -1.0789957696        0.0261312201
 H         -2.9410472293       -0.9398672940       -0.9048527041
 H         -3.0066282776       -0.7263438325        0.8562174197
 H         -2.1723286026       -2.1367120688        0.1630840903
 H          2.9407861920       -0.9378632721       -0.9059509375
 H          2.1721954846       -2.1371838122        0.1593622253
 H          3.0068030159       -0.7284981380        0.8556056668
 C         -1.2376637557        1.0686740191       -0.2217068908
 C          1.2380383852        1.0689233356       -0.2196737851
 C         -0.0003536455        1.7474095931        0.3534250303
 H         -2.1398900989        1.4369424833        0.2783996771
 H         -1.3296513809        1.2903860938       -1.2949943296
 H         -0.0012049096        1.6270594150        1.4394505670
 H         -0.0003077282        2.8132214183        0.1212195078
 H          1.3323178131        1.2916740513       -1.2925543800
 H          2.1393331143        1.4366626685        0.2826154023
  20
  -24.7787822000000       5.555353062630926E-002 !mtd12
 N         -1.1330159912       -0.3676050282       -0.0140673543
 C         -0.0000085568       -1.0620016701        0.0873178255
 N          1.1329743044       -0.3675278106       -0.0138856667
 C         -2.3834430169       -1.0788711579        0.0272649282
 C          2.3833472487       -1.0790172446        0.0262775772
 H         -3.0065188873       -0.7270982956        0.8564559499
 H         -2.1722156504       -2.1368968641        0.1622339588
 H         -2.9412102718       -0.9393353680       -0.9048960619
 H          2.1721765743       -2.1369160307        0.1617502237
 H          3.0075528473       -0.7269796814        0.8544016553
 H          2.9399375963       -0.9400044597       -0.9066872330
 C         -1.2377450098        1.0686691369       -0.2214093375
 C          1.2381124599        1.0689063558       -0.2197979835
 C         -0.0002689053        1.7474929332        0.3532917634
 H         -2.1398809884        1.4369524762        0.2788569057
 H         -1.3299566357        1.2904244021       -1.2946679771
 H         -0.0010521230        1.6275347891        1.4393557917
 H         -0.0001409505        2.8132152220        0.1207078837
 H          1.3326133771        1.2917292325       -1.2926696270
 H          2.1393433104        1.4366174913        0.2826839848
  20
  -24.7787821900000       5.555294276498448E-002 !mtd6
 N         -1.1329598382       -0.3676049077       -0.0140800294
 C          0.0000324973       -1.0620411377        0.0872851767
 N          1.1330060778       -0.3676167330       -0.0142498887
 C         -2.3833589065       -1.0788893280        0.0265926658
 C          2.3833797543       -1.0788634281        0.0272017001
 H         -3.0059501078       -0.7290819114        0.8569582973
 H         -2.1722522210       -2.1372498850        0.1587053423
 H         -2.9417385208       -0.9369789096       -0.9048479376
 H          2.9410676125       -0.9395914027       -0.9050620104
 H          2.1722883923       -2.1367939722        0.1623855510
 H          3.0067189018       -0.7267659327        0.8561236849
 C         -1.2380303921        1.0688347801       -0.2201194406
 C          1.2378415959        1.0687297627       -0.2210453381
 C          0.0001207854        1.7474585488        0.3533178976
 H         -2.1393798791        1.4365891622        0.2820466677
 H         -1.3321400308        1.2915375488       -1.2930352846
 H          0.0004200717        1.6274101044        1.4393841807
 H         -0.0000406339        2.8132080265        0.1208260015
 H          1.3308712694        1.2908394523       -1.2941479974
 H          2.1396673265        1.4367487979        0.2799959463
  20
  -24.7787821800000       5.555235490967154E-002 !mtd2
 N         -1.1329236368       -0.3677007058        0.0147336438
 C          0.0000206726       -1.0619533007       -0.0879563444
 N          1.1330178561       -0.3676389826        0.0141452672
 C         -2.3834188068       -1.0786170692       -0.0293136900
 C          2.3834098392       -1.0787155319       -0.0289240501
 H         -2.1724332963       -2.1367385379       -0.1629347604
 H         -3.0044045046       -0.7272312877       -0.8601208361
 H         -2.9434598966       -0.9382169142        0.9012389252
 H          2.9419788372       -0.9398824209        0.9028729196
 H          3.0057824233       -0.7259584097       -0.8582083380
 H          2.1724364258       -2.1366019273       -0.1647657099
 C         -1.2377468540        1.0686237102        0.2223982594
 C          1.2377280951        1.0685902128        0.2221641106
 C         -0.0000699204        1.7474483923       -0.3517820843
 H         -1.3303876584        1.2901143130        1.2956476160
 H         -2.1397010467        1.4369379238       -0.2781708426
 H         -0.0000100008        2.8132560410       -0.1195928385
 H         -0.0002324457        1.6270278670       -1.4377976666
 H          2.1395819509        1.4371292257       -0.2784275601
 H          1.3304571464        1.2899213567        1.2954559315
