  30
        -44.27485627
 N         -1.0868586089       -0.4800405685        0.1852890284
 C         -0.0000440557        0.2407056953       -0.0937776779
 N          1.0868286090       -0.4800954823        0.1849260942
 H         -0.0000052409        1.2229768779       -0.5236929021
 C          0.6800093748       -1.6951133645        0.6593315480
 C         -0.6799339299       -1.6950543213        0.6596029136
 C         -2.4285755088       -0.0599679919        0.0230872085
 C          2.4285408405       -0.0599877063        0.0227869771
 C         -3.3840606143       -0.9707537992       -0.4117621353
 C         -2.7781178354        1.2564141123        0.3014166009
 C          3.3838947461       -0.9705065999       -0.4129102848
 C          2.7782143828        1.2561310613        0.3021517633
 H          1.3670492232       -2.4499201315        0.9811578752
 H         -1.3668046756       -2.4498515437        0.9818083213
 C         -4.6946831740       -0.5560657732       -0.5681286756
 H         -3.1061592326       -1.9857596858       -0.6463347241
 C         -4.0921000371        1.6578462865        0.1400430156
 C          4.6945402557       -0.5558289581       -0.5690070122
 C          5.0498673249        0.7549012357       -0.2933621648
 C          4.0922707123        1.6575276460        0.1411969413
 C         -5.0498240605        0.7549594425       -0.2937394339
 H         -4.3698673885        2.6768510400        0.3582758886
 H          2.0407158046        1.9544009751        0.6639803280
 H          3.1058156174       -1.9852511127       -0.6484045508
 H          5.4393743472       -1.2574813021       -0.9097135850
 H          6.0734253078        1.0726898711       -0.4157136707
 H          4.3701940234        2.6762508748        0.3605609639
 H         -6.0732412240        1.0729131703       -0.4167398847
 H         -5.4395378953       -1.2578995262       -0.9084529215
 H         -2.0405229484        1.9549329210        0.6625848769
  30
        -44.27172785
 N         -1.0841892814       -0.2651227492        0.4327941880
 C          0.0019736616        0.1422422369       -0.2186532568
 N          1.0848129715       -0.2581286688        0.4477860617
 H         -0.0031645918        0.7209707217       -1.1216766563
 C          0.6721574603       -0.9408436801        1.5573385901
 C         -0.6883851116       -0.9476249662        1.5450990309
 C         -2.4353982008       -0.0329727802        0.0363450929
 C          2.4297362765       -0.0256240301        0.0702470376
 C         -3.0817117577       -0.9705742567       -0.7560783357
 C         -3.0804991756        1.1209100966        0.4568291892
 C          2.7888278835       -0.0858655735       -1.2712158395
 C          3.3769567342        0.2566288876        1.0470454327
 H          1.3562525267       -1.3852360027        2.2500693212
 H         -1.3889541962       -1.3786342556        2.2302020085
 C         -4.3941888812       -0.7431286043       -1.1328532049
 H         -2.5663266236       -1.8639339280       -1.0718130755
 C         -4.3934893889        1.3352124477        0.0738370834
 C          4.1055256933        0.1393765924       -1.6310616740
 C          5.0555875646        0.4215037001       -0.6623229017
 C          4.6902992739        0.4796940237        0.6731322618
 C         -5.0480692374        0.4063185469       -0.7190625140
 H         -4.9051277044        2.2285502878        0.3953110390
 H          3.0907729546        0.3224699930        2.0845144422
 H          2.0561202887       -0.3282026229       -2.0242567137
 H          4.3912660788        0.0893566209       -2.6698075425
 H          6.0811749967        0.5947999836       -0.9482631710
 H          5.4291777691        0.7027834841        1.4263943054
 H         -6.0712205906        0.5784043023       -1.0147391472
 H         -4.9062737247       -1.4648641159       -1.7493940594
 H         -2.5642943929        1.8382494595        1.0751616283
