  19
        -22.60917602
 C          0.0000293578       -0.7309451553        0.0000582968
 N          1.1705419236       -0.1011420645       -0.0297615872
 N         -1.1704996796       -0.1011721747        0.0299748148
 C          1.5291407883        1.3114213690       -0.1196577007
 C         -1.5292931191        1.3113645083        0.1195908284
 H          2.5047855661        1.3929457007       -0.6024944667
 H         -2.5048306635        1.3928318995        0.6026536884
 H          0.8117216661        1.8567099298       -0.7265202167
 H         -0.8118327414        1.8569624026        0.7261163964
 H          1.6021170212        1.7756186105        0.8697977442
 H         -1.6026244476        1.7752743666       -0.8699775808
 C          2.3343151529       -0.9533970028        0.0901791338
 C         -2.3342151506       -0.9534883633       -0.0903246174
 H          2.0030993287       -1.9853941789        0.1719499853
 H         -2.9134966811       -0.6919662838       -0.9815081974
 H          2.9834438208       -0.8525587700       -0.7855331292
 H         -2.0029514295       -1.9854985502       -0.1716795831
 H          2.9140168391       -0.6916687452        0.9810255719
 H         -2.9837616024       -0.8524278504        0.7850424838
