  13
        -13.91920888
 C         -1.9483174386       -0.1414317890        0.0001518270
 C         -0.5806964347        0.5282781479       -0.0001829986
 H         -2.0653689742       -0.7671571054       -0.8818973860
 H         -2.7402545565        0.6040751070        0.0010661603
 H         -2.0643579422       -0.7682516125        0.8815569506
 C          0.5582069086       -0.5006394076       -0.0001611628
 H         -0.4859606427        1.1669297687        0.8829322065
 H         -0.4862352553        1.1666168094       -0.8835482786
 N          1.8948997681        0.0665386176        0.0001745780
 H          0.4725309390       -1.1384361399       -0.8845973617
 H          0.4722449484       -1.1385730320        0.8841421072
 H          2.0247131943        0.6532388781        0.8184293572
 H          2.0252528995        0.6529313240       -0.8182178288
