  20
        -24.77878228
 N         -1.1329866362       -0.3676104165       -0.0141792971
 C         -0.0000038820       -1.0620417600        0.0872262530
 N          1.1329845304       -0.3675915360       -0.0140963478
 C         -2.3833758465       -1.0788422683        0.0270270389
 C          2.3833623061       -1.0788753952        0.0268562147
 H         -3.0062538986       -0.7277610541        0.8566414770
 H         -2.1723160391       -2.1370340149        0.1606983567
 H         -2.9414428565       -0.9382975479       -0.9048126102
 H          3.0068483446       -0.7271145477        0.8557156398
 H          2.9408761243       -0.9392948147       -0.9054745631
 H          2.1723060415       -2.1369062847        0.1617129146
 C         -1.2378376592        1.0687814757       -0.2208172450
 C          1.2378658338        1.0688147951       -0.2205567377
 C         -0.0000277847        1.7473938669        0.3534594753
 H         -2.1396345287        1.4367609725        0.2803365648
 H         -1.3309558992        1.2910105423       -1.2939084616
 H          0.0000655028        1.6269470672        1.4394693630
 H          0.0000425820        2.8132159454        0.1213255850
 H          1.3311883734        1.2912817011       -1.2935754595
 H          2.1395084904        1.4367714383        0.2808982186
