  27
        -33.26171745
 N         -1.0656031529        0.0004016337        0.0836068534
 C         -0.0000049933       -0.0013841517        0.9243056536
 N          1.0655877694        0.0004359123        0.0835992062
 C          0.6758353205        0.0032018051       -1.2329902603
 C         -0.6758555409        0.0032264424       -1.2329831511
 C         -2.4315389627       -0.0008173427        0.5473553685
 C          2.4315272807       -0.0013274194        0.5473411635
 C         -3.1620716110        1.2616127437        0.0875633384
 H         -2.3664539731       -0.0016590410        1.6415759316
 C         -3.1603687232       -1.2635176345        0.0855563059
 H          2.3664401094       -0.0037459873        1.6415584580
 C          3.1620717391        1.2617817717        0.0894178953
 C          3.1604151521       -1.2633206258        0.0837091691
 H          1.3660212057        0.0050717524       -2.0519590519
 H         -1.3660335779        0.0049302692       -2.0519552281
 H         -3.2469413280       -1.2842099815       -0.9987694663
 H         -4.1594037010       -1.2948926900        0.5121630650
 H         -2.6157722224       -2.1483802420        0.4071989501
 H         -3.2506240832        1.2828546044       -0.9965900325
 H         -2.6175701063        2.1467041351        0.4087616229
 H         -4.1603787695        1.2920017253        0.5159441221
 H          2.6153643909       -2.1486581434        0.4033004567
 H          4.1591583227       -1.2957525828        0.5109272568
 H          3.2477329893       -1.2819823421       -1.0005960686
 H          3.2504372061        1.2847567972       -0.9947202774
 H          4.1604514402        1.2914234803        0.5176973789
 H          2.6176707476        2.1463866110        0.4121342392
