  33
        -39.59675538
 N         -1.0678620240        0.2141534397       -0.0000959278
 C         -0.0000125582       -0.6244718050       -0.0002979355
 N          1.0678909412        0.2141500427       -0.0003145486
 C          0.6752863047        1.5310067029       -0.0001156867
 C         -0.6752462509        1.5310464550       -0.0000643704
 C         -2.4526373158       -0.2219348689        0.0000069852
 C          2.4526481409       -0.2219496533        0.0000438391
 C         -3.1494943622        0.3077801231       -1.2594214693
 C         -3.1506197246        0.3116643244        1.2571787205
 C         -2.4908997519       -1.7497243686        0.0023997636
 C          3.1488608966        0.3073628139        1.2600120032
 C          3.1512538610        0.3120638205       -1.2566037206
 C          2.4908495738       -1.7497441870       -0.0028697140
 H          1.3595424208        2.3549204800       -0.0000486916
 H         -1.3595692390        2.3548957401        0.0000069317
 H         -1.9834102400       -2.1346108051        0.8815044745
 H         -1.9815369914       -2.1373887022       -0.8743867938
 H         -3.5217556212       -2.0943591043        0.0018784258
 H         -3.1579759875        1.3952565085       -1.2750872845
 H         -4.1774237965       -0.0437958539       -1.2936927415
 H         -2.6305571495       -0.0458109465       -2.1478365498
 H          1.9830911088       -2.1342919010       -0.8819695914
 H          1.9816845284       -2.1376609267        0.8739194276
 H          3.5216753258       -2.0944663437       -0.0027248264
 H          4.1779481605       -0.0428822485       -1.2927485584
 H          3.1636272476        1.3995545912       -1.2665691011
 H          2.6311111348       -0.0350524351       -2.1468808806
 H         -4.1775799442       -0.0425108770        1.2932791787
 H         -3.1621266383        1.3991527492        1.2679680774
 H         -2.6305626867       -0.0365196447        2.1470853526
 H          4.1762187576       -0.0457030959        1.2956272042
 H          2.6283852230       -0.0450325587        2.1480104942
 H          3.1589458359        1.3948253046        1.2751711444
  33
        -39.59611121
 N         -1.0662300061        0.2068036781        0.0616424474
 C          0.0162182105       -0.5254180114       -0.3021901082
 N          1.0705537481        0.2328574842        0.1003720683
 C          0.6530488860        1.3908616745        0.7086674753
 C         -0.6976635525        1.3788237769        0.6769225208
 C         -2.4422656766       -0.1900406186       -0.1766058000
 C          2.4497047062       -0.2103562393       -0.0226025401
 C         -3.1029202409        0.8252009005       -1.1174646173
 C         -3.1938364365       -0.2435836449        1.1592064100
 C         -2.4534241137       -1.5738974112       -0.8251479470
 C          3.3944066696        0.9878530975       -0.1510227105
 C          2.5668420202       -1.0865408474       -1.2717225225
 C          2.8068486945       -1.0299749504        1.2244680928
 H          1.3173088980        2.1277443170        1.1097270777
 H         -1.3963446542        2.1054755410        1.0385846953
 H         -1.9756007722       -2.2967339815       -0.1708374250
 H         -1.9021776951       -1.5522244093       -1.7600464545
 H         -3.4770974999       -1.8848918137       -1.0169694186
 H         -3.1162660624        1.8181334704       -0.6735293379
 H         -4.1271742537        0.5290324299       -1.3285964114
 H         -2.5536383781        0.8742195236       -2.0552428935
 H          2.1510631771       -1.8944521297        1.2943350003
 H          2.6829995291       -0.4281294971        2.1230474205
 H          3.8373761693       -1.3715247091        1.1730559132
 H          1.8471682442       -1.8971292734       -1.2160872947
 H          3.5710726433       -1.4940682053       -1.3514166658
 H          2.3512405241       -0.5002928007       -2.1614227846
 H         -3.2424239145        0.7386821353        1.6233402514
 H         -2.6899791577       -0.9237229447        1.8427802460
 H         -4.2092421327       -0.5978771753        1.0016312095
 H          3.0483903330        1.6632416482       -0.9310263642
 H          4.3892932118        0.6379460582       -0.4148249939
 H          3.4701822935        1.5384689077        0.7837915667
  33
        -39.59537859
 N         -1.0668453255        0.1753995195        0.2462487867
 C         -0.0046836631       -0.3156820039       -0.4442906346
 N          1.0718308040        0.1678009562        0.2290419846
 C          0.6904395955        0.9326044693        1.3015114055
 C         -0.6628200079        0.9376825885        1.3121669110
 C         -2.4292610976       -0.1226888691       -0.1679559154
 C          2.4253250856       -0.1436983007       -0.2041756895
 C         -2.6134842104        0.4018130245       -1.5966640405
 C         -3.4527586429        0.5301056651        0.7596513847
 C         -2.6059288232       -1.6453447539       -0.1472318373
 C          2.5859979061        0.3548381488       -1.6448822797
 C          2.5960014950       -1.6666337842       -0.1598479824
 C          3.4680468872        0.5210914895        0.6929831424
 H          1.3727645699        1.4121749060        1.9715049390
 H         -1.3309459927        1.4226117118        1.9925661100
 H         -1.8506918822       -2.1015922607       -0.7811976458
 H         -3.5934637658       -1.9198415567       -0.5083009903
 H         -2.4842428709       -2.0259058440        0.8648136063
 H         -2.4971711267        1.4834265790       -1.6199575609
 H         -3.6011550772        0.1476636504       -1.9720042335
 H         -1.8584487778       -0.0409969253       -2.2403572618
 H          3.3804561323        0.1709737373        1.7195128454
 H          3.3644313458        1.6041552605        0.6753286082
 H          4.4624084793        0.2693690539        0.3325385996
 H          2.4880691311       -2.0292806065        0.8603782479
 H          3.5768895304       -1.9517011719       -0.5308537810
 H          1.8295612832       -2.1306170120       -0.7745340612
 H         -3.3501770268        1.6133962510        0.7537229936
 H         -3.3428470896        0.1669048191        1.7795025189
 H         -4.4545338221        0.2823791839        0.4173606139
 H          1.8163477764       -0.0941663670       -2.2665057327
 H          3.5649836296        0.0880225587       -2.0339080718
 H          2.4757286311        1.4365926862       -1.6846962860
  33
        -39.59530365
 N         -1.0674740677        0.1887061136        0.2224593037
 C         -0.0127404469       -0.2637757372       -0.5051295962
 N          1.0711140938        0.1956308659        0.1726298872
 C          0.7009976165        0.8894325949        1.2974681047
 C         -0.6510951316        0.8858623394        1.3283314408
 C         -2.4384810719       -0.1352152122       -0.1396422518
 C          2.4306917335       -0.1204365294       -0.2354243692
 C         -2.5884359233        0.0503514012       -1.6525124722
 C         -3.4324027507        0.7708921070        0.5880036129
 C         -2.6960654246       -1.6009072714        0.2331585152
 C          2.4932934417       -0.0848730844       -1.7646624296
 C          2.7669045116       -1.5305739058        0.2672438804
 C          3.4248455128        0.8908519619        0.3393183330
 H          1.3928771943        1.3332502164        1.9823661419
 H         -1.3128127558        1.3272939011        2.0437825223
 H         -2.5601069007       -1.7490974533        1.3029184867
 H         -1.9926770795       -2.2382507779       -0.2965568169
 H         -3.7092506855       -1.8902178240       -0.0332528709
 H         -2.4458195361        1.0951032267       -1.9188092802
 H         -3.5770297491       -0.2637883382       -1.9763491379
 H         -1.8334151300       -0.5399122329       -2.1630482612
 H          3.1123075070        1.9076464655        0.1093858217
 H          4.4040118136        0.7244719746       -0.1025689712
 H          3.5213676477        0.7850211854        1.4175577401
 H          2.6889631309       -1.5750353194        1.3521345216
 H          3.7776207374       -1.8071913195       -0.0215346104
 H          2.0677469656       -2.2456673911       -0.1592563595
 H         -3.1910587441        1.8187922738        0.4207016584
 H         -3.4383943181        0.5740319521        1.6578614394
 H         -4.4333279306        0.5849314689        0.2065521056
 H          3.4777445587       -0.3902762134       -2.1090390523
 H          2.2893157651        0.9206705208       -2.1247785596
 H          1.7410007168       -0.7528304195       -2.1726946249
