34
Properties=species:S:1:pos:R:3 energy=-8360.907063802084 free_energy=-8360.907063802084 pbc="F F F"
C        0.00000100       0.68539300      -1.31208200
C       -0.00000100      -0.68539400      -1.31208200
C        0.00000300      -0.00000000       0.78849700
N        0.00000200       1.08268400       0.01668600
N        0.00000300      -1.08268500       0.01668600
H        0.00000500      -0.00000000       1.87898800
C        0.00000000       1.65153500      -2.44685500
C       -0.00000600      -1.65153500      -2.44685500
H       -0.89227300       2.29574500      -2.42487500
H       -0.89228000      -2.29574200      -2.42487400
H        0.89226700      -2.29574600      -2.42487900
H        0.89227400       2.29574300      -2.42487700
H       -0.00000200       1.10425000      -3.39794900
H       -0.00000700      -1.10425000      -3.39795000
C       -1.27279800       2.75088000       1.30491100
C       -1.27279800      -2.75088100       1.30490900
C        1.27279900      -2.75087900       1.30491700
C        1.27279800       2.75088100       1.30491400
C        0.00000100       2.47368500       0.51682800
C        0.00000300      -2.47368500       0.51682800
H       -2.16578800       2.53552700       0.69970200
H       -2.16578700      -2.53552700       0.69969900
H        2.16579100      -2.53552100       0.69971300
H        2.16579000       2.53552700       0.69970700
H       -1.31100300       2.14312200       2.22291800
H       -1.31100200      -2.14312400       2.22291700
H        1.31099600      -2.14312500       2.22292600
H        1.31100000       2.14312400       2.22292200
H       -1.29744700       3.81052700       1.59739600
H       -1.29744700      -3.81052800       1.59739300
H        1.29744900      -3.81052700       1.59739800
H        1.29744700       3.81052800       1.59739700
H        0.00000200       3.09778300      -0.38702700
H        0.00000600      -3.09778400      -0.38702700
