  15
  -28.6917218800000       9.312480084469078E-002 !gc
 N         -1.0710589157       -1.1743559962       -0.0000567464
 C         -0.0000258828       -2.0060901480       -0.0000369183
 N          1.0710398078       -1.1743677990       -0.0000060406
 C          0.6813885476        0.1418210658        0.0000085477
 C         -0.6814155957        0.1418386982       -0.0000153611
 C         -2.4371083280       -1.6138038485        0.0000596576
 C          2.4370889086       -1.6137414644        0.0000168578
 H         -2.9573809782       -1.2457213165       -0.8861496287
 H         -2.9563782101       -1.2485516164        0.8880451360
 H         -2.4340528130       -2.7010825123       -0.0016202095
 H          2.9568390073       -1.2471392239       -0.8871278127
 H          2.4341273278       -2.7010253767        0.0001118835
 H          2.9568459007       -1.2469809778        0.8870912297
 Cl         1.7796552609        1.4501150433        0.0000090179
 Cl        -1.7796232071        1.4501927913       -0.0000052861
  15
  -28.6917218800000       9.312480084469078E-002 !input
 N         -1.0710564140       -1.1743660430       -0.0000485123
 C         -0.0000067169       -2.0061003612       -0.0000527069
 N          1.0710474662       -1.1743634756       -0.0000924616
 C          0.6814026267        0.1418010035        0.0000131037
 C         -0.6814048987        0.1417990011       -0.0001090678
 C         -2.4370761351       -1.6138156294        0.0001704780
 C          2.4370493113       -1.6138448172       -0.0000188247
 H         -2.4340367365       -2.7011054712       -0.0004475716
 H         -2.9570695708       -1.2465953870       -0.8865678264
 H         -2.9565286699       -1.2476247902        0.8876719917
 H          2.4339785236       -2.7010994444        0.0004039839
 H          2.9568458939       -1.2468117581        0.8868721305
 H          2.9567548924       -1.2475687918       -0.8872868970
 Cl         1.7796182223        1.4501950145        0.0001352988
 Cl        -1.7796009718        1.4501864529       -0.0000989734
  15
  -28.6917218800000       9.312480084469078E-002 !gc
 N         -1.0710578294       -1.1743432858       -0.0000047455
 C         -0.0000150045       -2.0060904612        0.0000112985
 N          1.0710386655       -1.1743799835        0.0000193115
 C          0.6814044276        0.1418155853        0.0000379935
 C         -0.6814044322        0.1418405972       -0.0000227578
 C         -2.4370742885       -1.6138179192       -0.0000935197
 C          2.4370533393       -1.6138052417        0.0000614662
 H         -2.9568000396       -1.2474138088        0.8872031271
 H         -2.4339489971       -2.7011040703       -0.0004091174
 H         -2.9568696112       -1.2468749579       -0.8870996447
 H          2.4340682203       -2.7010980890       -0.0011971496
 H          2.9564308987       -1.2481487709        0.8878297423
 H          2.9571220384       -1.2460432165       -0.8864158504
 Cl         1.7796081153        1.4501682190       -0.0001279879
 Cl        -1.7795884332        1.4501722722        0.0001266302
  15
  -28.6917218800000       9.312480084469078E-002 !gc
 N         -1.0710563116       -1.1743605403       -0.0000266375
 C         -0.0000214434       -2.0060845908       -0.0000152439
 N          1.0710456461       -1.1743509692        0.0000011036
 C          0.6813888366        0.1418320842        0.0000071930
 C         -0.6814240504        0.1418344990       -0.0000084128
 C         -2.4370975290       -1.6137935284        0.0000281272
 C          2.4370821137       -1.6137429846       -0.0000015265
 H         -2.9566046913       -1.2478078577        0.8875707753
 H         -2.4340857734       -2.7010755494       -0.0007984611
 H         -2.9570932770       -1.2464156575       -0.8866435155
 H          2.9568524848       -1.2468893677        0.8870236313
 H          2.9567673813       -1.2471818447       -0.8871994425
 H          2.4341095726       -2.7010346935        0.0001725230
 Cl         1.7796663716        1.4500991711        0.0000081936
 Cl        -1.7796361969        1.4501939048       -0.0000051081
  15
  -28.6917218800000       9.312480084469078E-002 !gc
 N         -1.0710563459       -1.1743603529        0.0000149260
 C         -0.0000215417       -2.0060845207        0.0000240267
 N          1.0710455815       -1.1743510160        0.0000324606
 C          0.6813888695        0.1418321755        0.0000040893
 C         -0.6814239839        0.1418346771        0.0000010949
 C         -2.4370975296       -1.6137935443       -0.0000277064
 C          2.4370821909       -1.6137426514       -0.0000398067
 H         -2.4340853297       -2.7010757643        0.0003664937
 H         -2.9567183140       -1.2474443796       -0.8873514803
 H         -2.9569800315       -1.2467791587        0.8868632454
 H          2.9565193391       -1.2478363206       -0.8876576166
 H          2.4341102734       -2.7010339619        0.0009101086
 H          2.9571002634       -1.2462344267        0.8865647410
 Cl         1.7796665534        1.4500989200        0.0000015735
 Cl        -1.7796363803        1.4501938505        0.0000013382
  15
  -28.6917218800000       9.312480084469078E-002 !gc
 N         -1.0710588137       -1.1743560938       -0.0000487231
 C         -0.0000257486       -2.0060901457       -0.0000441795
 N          1.0710398704       -1.1743676944       -0.0000332078
 C          0.6813885572        0.1418211791        0.0000017135
 C         -0.6814155786        0.1418386813       -0.0000068160
 C         -2.4371084208       -1.6138034784        0.0000573970
 C          2.4370889382       -1.6137416012        0.0000403697
 H         -2.9572926423       -1.2460051752       -0.8863236425
 H         -2.9564665145       -1.2482661392        0.8878720419
 H         -2.4340531028       -2.7010826024       -0.0012839512
 H          2.9565938847       -1.2477080444        0.8875673473
 H          2.9570911130       -1.2464129511       -0.8866511872
 H          2.4341272219       -2.7010252631       -0.0007272124
 Cl         1.7796552815        1.4501151215        0.0000045655
 Cl        -1.7796233181        1.4501925738       -0.0000015120
  15
  -28.6917218700000       9.312381540798451E-002 !gc
 N         -1.0710591061       -1.1743548929       -0.0000319765
 C         -0.0000268351       -2.0060901342       -0.0000634445
 N          1.0710394170       -1.1743686130       -0.0000847134
 C          0.6813888022        0.1418205592       -0.0000158037
 C         -0.6814151735        0.1418394676        0.0000075630
 C         -2.4371079362       -1.6138050430        0.0000536833
 C          2.4370889447       -1.6137404754        0.0000895581
 H         -2.9566601209       -1.2476535583        0.8874976922
 H         -2.4340486645       -2.7010846727       -0.0005569246
 H         -2.9571001282       -1.2466226973       -0.8866991668
 H          2.9575619459       -1.2450540948       -0.8857527431
 H          2.4341311295       -2.7010219592       -0.0022900790
 H          2.9561203750       -1.2490649679        0.8884614054
 Cl         1.7796553697        1.4501148464       -0.0000049943
 Cl        -1.7796232602        1.4501928762        0.0000080851
  15
  -28.6917218700000       9.312381540798451E-002 !mtd5
 N         -1.0710440998       -1.1743550010       -0.0000749724
 C         -0.0000121496       -2.0060938548       -0.0000678628
 N          1.0710348464       -1.1743629671       -0.0001467248
 C          0.6813977999        0.1418334747       -0.0000427262
 C         -0.6813989183        0.1418455876       -0.0000878345
 C         -2.4370596384       -1.6137629396        0.0001661694
 C          2.4370433325       -1.6137700769        0.0000548521
 H         -2.9565954584       -1.2482783729       -0.8875766942
 H         -2.9569334491       -1.2458230193        0.8866642096
 H         -2.4340528340       -2.7010502780        0.0016386292
 H          2.4340159174       -2.7010636049        0.0010705839
 H          2.9567787291       -1.2462193770        0.8868164002
 H          2.9566903816       -1.2478693751       -0.8874695096
 Cl         1.7796670036        1.4501391007        0.0001105677
 Cl        -1.7796505791        1.4501513832       -0.0000631481
  15
  -28.6917218600000       9.312282998205609E-002 !md5
 N         -1.0710867398       -1.1743553097       -0.0001605668
 C         -0.0000261157       -2.0060971110       -0.0000139861
 N          1.0710344668       -1.1743826863        0.0000173855
 C          0.6813995301        0.1418226607       -0.0000154297
 C         -0.6814086058        0.1418022151       -0.0000127549
 C         -2.4370467920       -1.6138046095       -0.0002227481
 C          2.4370788545       -1.6137363929        0.0003246741
 H         -2.4340031386       -2.7011338833       -0.0001033670
 H         -2.9568926276       -1.2471499873       -0.8872987956
 H         -2.9567479015       -1.2471166944        0.8869779524
 H          2.9567778123       -1.2463041000        0.8871293230
 H          2.9568111572       -1.2477328162       -0.8871069357
 H          2.4341404552       -2.7010208793        0.0011547938
 Cl         1.7796268148        1.4501034411       -0.0004227246
 Cl        -1.7796075409        1.4502215093        0.0004376418
  15
  -28.6903763900000       2.242440693174556E-002 !gc
 N         -1.0765432676       -1.1774199838       -0.0008221291
 C         -0.0021286272       -2.0075673598       -0.0005057853
 N          1.0675774968       -1.1762073067       -0.0000573069
 C          0.6770234220        0.1391157137        0.0001409566
 C         -0.6862156711        0.1387211112       -0.0002088727
 C         -2.4389297767       -1.6376492768        0.0008762375
 C          2.4338174151       -1.6148174285        0.0002905368
 H         -2.6335870235       -2.2200557828        0.9019141014
 H         -2.6154777638       -2.2726547585       -0.8673444935
 H         -3.1108667296       -0.7823544093       -0.0306717329
 H          2.9530345447       -1.2469347096        0.8871779589
 H          2.9532601377       -1.2483307226       -0.8870522502
 H          2.4316025387       -2.7021156723        0.0011359365
 Cl         1.7731740166        1.4495608135        0.0001015434
 Cl        -1.7634380606        1.4659301408       -0.0001017037
  15
  -28.6903741600000       2.237155277464680E-002 !gc
 N         -1.0676558879       -1.1760627301        0.0000538852
 C          0.0018721788       -2.0075647717       -0.0002693192
 N          1.0765041106       -1.1777361195       -0.0003432064
 C          0.6863255635        0.1385537445       -0.0001228772
 C         -0.6769013536        0.1392301018        0.0000348246
 C         -2.4337679468       -1.6151934787        0.0001098801
 C          2.4389882023       -1.6375575374        0.0003838319
 H         -2.9526912785       -1.2503843608       -0.8882473393
 H         -2.9539166933       -1.2460929189        0.8859505594
 H         -2.4309248605       -2.7024664618        0.0026580430
 H          2.6207783191       -2.2582060811       -0.8772124633
 H          2.6289682877       -2.2346302844        0.8926880233
 H          3.1107058589       -0.7816514043       -0.0137970350
 Cl         1.7632527147        1.4659691257       -0.0000352183
 Cl        -1.7729956565        1.4497310158        0.0000453430
  15
  -28.6903741200000       2.237060585622349E-002 !gc
 N         -1.0676542315       -1.1760671707        0.0000186238
 C          0.0018771711       -2.0075645548       -0.0002812060
 N          1.0765055857       -1.1777312345       -0.0003287897
 C          0.6863241253        0.1385581402       -0.0001115300
 C         -0.6769032110        0.1392274021        0.0000214490
 C         -2.4337703808       -1.6151836518        0.0001442662
 C          2.4389883212       -1.6375595170        0.0003769736
 H         -2.4309434930       -2.7024593282        0.0015103886
 H         -2.9530327529       -1.2493714288       -0.8875954024
 H         -2.9535716360       -1.2470717712        0.8866064796
 H          2.6210035131       -2.2575902258       -0.8776138967
 H          2.6287331524       -2.2352611038        0.8923045964
 H          3.1107146681       -0.7816478153       -0.0130435317
 Cl         1.7632558892        1.4659679872       -0.0000266794
 Cl        -1.7729993985        1.4497278238        0.0000367647
  15
  -28.6903736500000       2.235948256648273E-002 !gc
 N         -1.0676748205       -1.1761699289        0.0000180288
 C          0.0019826700       -2.0074541489       -0.0000546269
 N          1.0765472507       -1.1775720241       -0.0000976168
 C          0.6862663453        0.1386803915       -0.0000127081
 C         -0.6769645319        0.1391716965        0.0000437531
 C         -2.4338381555       -1.6149978417        0.0000195584
 C          2.4389624551       -1.6374873670        0.0000887930
 H         -2.9531781581       -1.2476262081        0.8870654426
 H         -2.4312789637       -2.7022663847        0.0001974852
 H         -2.9531015056       -1.2479218440       -0.8871950366
 H          3.1106669327       -0.7814606938       -0.0049340041
 H          2.6231874638       -2.2505290334       -0.8824192511
 H          2.6261860432       -2.2422461189        0.8877335110
 Cl         1.7633922910        1.4658101298       -0.0000091893
 Cl        -1.7730958078        1.4496776170       -0.0000008265
  15
  -28.6903736400000       2.235924596082393E-002 !gc
 N         -1.0676743437       -1.1761704499        0.0000252642
 C          0.0019832777       -2.0074539152       -0.0000383727
 N          1.0765474319       -1.1775712062       -0.0000810770
 C          0.6862660868        0.1386808777       -0.0000093061
 C         -0.6769646668        0.1391720780        0.0000437714
 C         -2.4338383554       -1.6149958892        0.0000063921
 C          2.4389622843       -1.6374876849        0.0000673831
 H         -2.4312816201       -2.7022646065        0.0002841659
 H         -2.9530600699       -1.2480036890       -0.8872677155
 H         -2.9532182553       -1.2475388425        0.8869928538
 H          3.1106680094       -0.7814590812       -0.0044390311
 H          2.6233287750       -2.2500958900       -0.8827151446
 H          2.6260426997       -2.2426822186        0.8874418520
 Cl         1.7633930219        1.4658102388       -0.0000070159
 Cl        -1.7730966810        1.4496762946       -0.0000030469
  15
  -28.6903736000000       2.235829956330988E-002 !input
 N         -1.0676646595       -1.1761347083       -0.0000020945
 C          0.0019305327       -2.0075651434        0.0000017361
 N          1.0765238767       -1.1777063415       -0.0000032550
 C          0.6862925408        0.1384888433       -0.0000003075
 C         -0.6768971912        0.1391158479        0.0000003436
 C         -2.4338547478       -1.6149702721       -0.0000021683
 C          2.4390457559       -1.6374815075       -0.0000038756
 H         -2.4313234536       -2.7022478826       -0.0000050633
 H         -2.9532505549       -1.2478248644       -0.8871074452
 H         -2.9532476760       -1.2478301663        0.8871069352
 H          2.6249259583       -2.2463249037        0.8850560117
 H          3.1107068125       -0.7814114818       -0.0000014831
 H          2.6249271066       -2.2463209451       -0.8850663987
 Cl         1.7631345163        1.4659745156        0.0000012864
 Cl        -1.7728767269        1.4496599152        0.0000027702
  15
  -28.6903735700000       2.235758979139950E-002 !gc
 N         -1.0676697449       -1.1761881110       -0.0000043487
 C          0.0020031937       -2.0074437188       -0.0000069258
 N          1.0765426781       -1.1775489013       -0.0000051898
 C          0.6862481150        0.1386851061       -0.0000004560
 C         -0.6769891052        0.1391687758       -0.0000001277
 C         -2.4338444785       -1.6149705084        0.0000038603
 C          2.4389590154       -1.6374497871        0.0000025427
 H         -2.9531400571       -1.2476799569       -0.8871023765
 H         -2.9531040230       -1.2477581017        0.8871636432
 H         -2.4313451035       -2.7022417105       -0.0000427225
 H          2.6246734974       -2.2462746684        0.8851345603
 H          3.1106915539       -0.7814590634       -0.0000568343
 H          2.6246449766       -2.2463780951       -0.8850637722
 Cl         1.7634256131        1.4657649087        0.0000004434
 Cl        -1.7731167397        1.4496873988        0.0000027760
  15
  -28.6890096200000       5.279550689198414E-003 !mtd8
 N         -1.0731101288       -1.1793000590       -0.0008975798
 C         -0.0000569713       -2.0089669696       -0.0008251640
 N          1.0730298787       -1.1792522181       -0.0004845293
 C          0.6817856539        0.1361479695       -0.0000458139
 C         -0.6818891351        0.1361055293       -0.0001234241
 C         -2.4357532470       -1.6386778707        0.0010386555
 C          2.4356559846       -1.6385731565        0.0008368413
 H         -3.1071826826       -0.7828287112       -0.0268108454
 H         -2.6293848044       -2.2239803855        0.9003896208
 H         -2.6139855508       -2.2707074128       -0.8690089213
 H          2.6257895263       -2.2347947507        0.8936248236
 H          3.1069955547       -0.7823843715       -0.0138306586
 H          2.6177412726       -2.2598737969       -0.8762272950
 Cl         1.7570776650        1.4652536187        0.0000047772
 Cl        -1.7569578909        1.4652801102        0.0000114401
