  15
        -28.69172188
 N         -1.0710589157       -1.1743559962       -0.0000567464
 C         -0.0000258828       -2.0060901480       -0.0000369183
 N          1.0710398078       -1.1743677990       -0.0000060406
 C          0.6813885476        0.1418210658        0.0000085477
 C         -0.6814155957        0.1418386982       -0.0000153611
 C         -2.4371083280       -1.6138038485        0.0000596576
 C          2.4370889086       -1.6137414644        0.0000168578
 H         -2.9573809782       -1.2457213165       -0.8861496287
 H         -2.9563782101       -1.2485516164        0.8880451360
 H         -2.4340528130       -2.7010825123       -0.0016202095
 H          2.9568390073       -1.2471392239       -0.8871278127
 H          2.4341273278       -2.7010253767        0.0001118835
 H          2.9568459007       -1.2469809778        0.8870912297
 Cl         1.7796552609        1.4501150433        0.0000090179
 Cl        -1.7796232071        1.4501927913       -0.0000052861
