  15
        -20.59599798
 N         -1.0646237290       -0.1249704403       -0.0000646784
 C          0.0000029824       -0.9673903349       -0.0000340811
 N          1.0646232517       -0.1249740925        0.0000135226
 C          0.6763835389        1.1921983368        0.0000245020
 C         -0.6763895067        1.1922032168       -0.0000183453
 C         -2.4326169752       -0.5599509053        0.0000520152
 C          2.4326230250       -0.5599286242        0.0000105416
 H         -2.4414455190       -1.6476570102        0.0006179401
 H         -2.9534940148       -0.1943570779       -0.8880183158
 H         -2.9536186246       -0.1933651792        0.8876796325
 H          2.9537225915       -0.1932068569       -0.8874325565
 H          2.4415182028       -1.6477091768       -0.0007965620
 H          2.9533043202       -0.1945637500        0.8882615472
 H          1.3782487121        2.0017252127        0.0000609739
 H         -1.3782655525        2.0017158079       -0.0000744609
  15
        -20.59490654
 N         -1.0644949242       -0.1245396078       -0.0001044187
 C         -0.0007254987       -0.9660540024        0.0007166726
 N          1.0654112140       -0.1223142258        0.0012244755
 C          0.6749742855        1.1928277227        0.0002974744
 C         -0.6781018552        1.1932932409       -0.0002850389
 C         -2.4319327294       -0.5615841185       -0.0003739752
 C          2.4336426385       -0.5640853237       -0.0011128326
 H         -2.9534471432       -0.1947175712       -0.8874644500
 H         -2.9530862736       -0.1976465438        0.8881534429
 H         -2.4389785380       -1.6493566419       -0.0021211254
 H          2.6245138310       -1.2004925308        0.8641460592
 H          3.0967444706        0.2989535263        0.0338924571
 H          2.6429184241       -1.1416958478       -0.9031055581
 H          1.3743838369        2.0048274311        0.0004418530
 H         -1.3802424856        2.0023416838       -0.0004786151
