21
Properties=species:S:1:pos:R:3 energy=-8360.907063802084 free_energy=-8360.907063802084 pbc="F F F"
C       -0.06768300       1.11235600       1.24847400
C       -0.06894500      -0.95956200       0.00000000
C       -0.06768300       1.11235600      -1.24847400
C        0.56189500       1.70608800      -0.00000000
H       -1.10575400       1.46015600       1.38312100
H       -0.07168000      -2.05442500      -0.00000000
H        0.50111000       1.39250000      -2.14643100
H        1.64447100       1.50167700      -0.00000000
N       -0.06859900      -0.34902500       1.16409200
N       -0.06860100      -0.34902500      -1.16409200
H       -1.10575400       1.46015700      -1.38312200
H        0.42881700       2.79642600       0.00000000
H        0.50111000       1.39250100       2.14643100
C       -0.10921700      -1.09934200       2.41038800
H       -0.14431200      -2.17502800       2.19672300
H        0.78577500      -0.87549400       3.00911200
H       -1.00418400      -0.81603000       2.98384900
C       -0.10921700      -1.09934200      -2.41038700
H        0.78577600      -0.87549500      -3.00911000
H       -0.14431500      -2.17502800      -2.19672300
H       -1.00418300      -0.81602800      -2.98385000
