  16
        -20.76080460
 N         -1.0860303950       -0.1066676055        0.0001526177
 C          0.0000401691       -0.8745263794        0.0000760170
 N          1.0860492541       -0.1065916464       -0.0000248605
 H          0.0000363608       -1.9476879314        0.0001349905
 C          0.6808983980        1.1934213226       -0.0000361888
 C         -0.6809530695        1.1933796195        0.0000274459
 C         -2.4535603892       -0.5517621145       -0.0001148520
 C          2.4535550114       -0.5517610147       -0.0000417658
 H         -2.9680383544       -0.1806274161       -0.8872256713
 H         -2.9706946193       -0.1732009129        0.8822557348
 H         -2.4908788456       -1.6385855455        0.0043363028
 H          2.4907960368       -1.6386088898       -0.0002508114
 H          2.9693645556       -0.1771277360        0.8847915484
 H          2.9694297639       -0.1767944461       -0.8847005210
 H          1.3709154641        2.0126395015       -0.0000758199
 H         -1.3709555352        2.0126066269        0.0000235117
