29
	Energy:      57.5716732
N         -1.92332       -0.72181        0.62733
C         -1.07050       -1.61099       -0.13418
N          0.12215       -0.83150       -0.39457
C         -0.03401        0.44566        0.18799
C         -1.25600        0.51119        0.79849
C         -3.22549       -1.06257        1.11474
C          1.25902       -1.30305       -1.12567
C         -3.76414       -2.34160        0.86369
C         -3.99999       -0.14140        1.85170
C          2.38809       -0.48397       -1.33971
C          1.27071       -2.61159       -1.65168
H          0.68307        1.25324        0.16620
H         -1.63222        1.37739        1.32289
C         -5.27011       -0.49321        2.31943
C         -5.78682       -1.76344        2.06138
C         -5.03452       -2.68644        1.33432
C          3.48917       -0.96293       -2.05661
C          3.48294       -2.26053       -2.56969
C          2.37486       -3.08376       -2.36735
H         -3.20535       -3.07925        0.30294
H         -3.63841        0.85103        2.07347
H         -5.85502        0.22181        2.88369
H         -6.77020       -2.03240        2.42489
H         -5.43586       -3.67165        1.13444
H          2.43419        0.52538       -0.96032
H          2.37057       -4.09026       -2.76559
H          0.42667       -3.27401       -1.51160
H          4.34966       -0.32542       -2.21445
H          4.33683       -2.62802       -3.12407
