15
Properties=species:S:1:pos:R:3 energy=-8347.217610677084 free_energy=-8347.217610677084 pbc="F F F"
C       -0.00000000       0.67784200      -1.19364600
C       -0.00000100      -0.67784200      -1.19364600
N       -0.00000000       1.06158600       0.13704500
N       -0.00000000      -1.06158600       0.13704500
C       -0.00000000       0.00000000       0.98722900
H        0.00000000       1.39329300      -2.01471900
H       -0.00000100      -1.39329300      -2.01471900
C        0.00000000       2.44699400       0.56579800
C        0.00000000      -2.44699400       0.56579800
H       -0.89457900       2.96833300       0.19402700
H       -0.89457900      -2.96833200       0.19402800
H        0.89458000      -2.96833200       0.19402800
H        0.89458000       2.96833200       0.19402900
H       -0.00000100       2.46874700       1.66210500
H        0.00000000      -2.46874800       1.66210500
