  15
        -20.59256246
 C          0.6761821348       -1.1930351498       -0.0000225799
 C         -0.6761810895       -1.1930395096       -0.0000005008
 N          1.0637362045        0.1242959777        0.0000223318
 N         -1.0637385503        0.1242886516        0.0000526878
 C         -0.0000007331        0.9664693587        0.0000487956
 H          1.3781213277       -2.0024811423        0.0000760493
 H         -1.3780851517       -2.0025183090        0.0000380591
 C          2.4289433772        0.5612711543       -0.0000420559
 C         -2.4289417084        0.5612726032       -0.0000503471
 H          2.9533901126        0.1976488685       -0.8877217827
 H         -2.4361410172        1.6495464579       -0.0003160047
 H         -2.9533698152        0.1976297301       -0.8877742963
 H          2.9533541725        0.1980518096        0.8878889169
 H          2.4361563559        1.6495236312       -0.0002754603
 H         -2.9534169923        0.1980795269        0.8878366905
