  21
        -26.93415925
 C         -0.6799780017       -0.6617430295        0.0000000054
 C          0.6799779976       -0.6617430308       -0.0000001349
 N         -1.0632445154        0.6664230229        0.0000001787
 N          1.0632445221        0.6664230170       -0.0000000333
 C          0.0000000020        1.5085818000        0.0000001530
 C         -2.4237575895        1.1150953590       -0.0000001303
 C          2.4237575936        1.1150953517       -0.0000000655
 H         -2.9539208479        0.7594089674        0.8876583829
 H          2.9539206461        0.7594089910        0.8876585909
 H          2.9539203585        0.7594097330       -0.8876591918
 H         -2.9539201390        0.7594097658       -0.8876594008
 H         -2.4162974320        2.2033571072        0.0000003638
 H          2.4162974361        2.2033570997        0.0000003857
 C         -1.6620918782       -1.7773731627       -0.0000000021
 C          1.6620918693       -1.7773731677        0.0000000476
 H         -2.3018310690       -1.7304593874       -0.8824347291
 H          2.3018310995       -1.7304595084       -0.8824346521
 H          2.3018309715       -1.7304593022        0.8824348380
 H         -2.3018310232       -1.7304594181        0.8824347602
 H         -1.1445336777       -2.7330905417       -0.0000000260
 H          1.1445336641       -2.7330905449        0.0000001675
  21
        -26.93291198
 C         -0.6851759100       -0.6580404953       -0.0006915540
 C          0.6754521833       -0.6566241522       -0.0002767121
 N         -1.0682754585        0.6695331056       -0.0001934836
 N          1.0613341574        0.6687721694        0.0000293240
 C         -0.0023570039        1.5103327713        0.0000771922
 C         -2.4219152620        1.1426166695        0.0000584908
 C          2.4224768453        1.1153250808        0.0001730167
 H         -2.9597402009        0.8002089095        0.8884128606
 H          2.9526434394        0.7547147108        0.8857958409
 H          2.9507323474        0.7616059373       -0.8894189324
 H         -2.9583680769        0.8055039720       -0.8912272806
 H         -2.3883512487        2.2304927313        0.0030148211
 H          2.4174938524        2.2035878801        0.0042508005
 C         -1.6301964727       -1.8099250431        0.0004963528
 C          1.6432292551       -1.7847604471        0.0000170482
 H         -1.4960775306       -2.4150261691        0.8979564383
 H          2.2880169183       -1.7439449459       -0.8790615774
 H          2.2798928888       -1.7504516485        0.8853100617
 H         -1.4549439137       -2.4491894233       -0.8653364789
 H         -2.6606449130       -1.4674222752       -0.0300548096
 H          1.1077713317       -2.7303587437       -0.0056185990
