  21
        -26.93415923
 N         -1.0632597706       -0.6664500602        0.0000534601
 C         -0.0000418970       -1.5086083792       -0.0000553623
 N          1.0632079139       -0.6664930087       -0.0000727570
 C          0.6799711772        0.6617135658       -0.0000614802
 C         -0.6799753346        0.6617373736       -0.0000010022
 C         -2.4238368478       -1.1149794153       -0.0001600455
 C          2.4237822238       -1.1150157942        0.0002393082
 H         -2.4165302021       -2.2032283275        0.0009489188
 H         -2.9534537758       -0.7601763509       -0.8884870721
 H         -2.9543947202       -0.7582662377        0.8868193631
 H          2.4165183144       -2.2032928225        0.0005083808
 H          2.9537201751       -0.7590354242        0.8879120889
 H          2.9540028721       -0.7593978613       -0.8873686783
 C          1.6621523687        1.7772629411       -0.0002429288
 C         -1.6620225023        1.7774024308        0.0002661033
 H         -2.3029633900        1.7296966589       -0.8812300584
 H         -1.1443900250        2.7330700735       -0.0013454418
 H         -2.3005602066        1.7314033343        0.8836216538
 H          2.3011428898        1.7307717606       -0.8832194416
 H          2.3026002798        1.7298394556        0.8816135364
 H          1.1446806063        2.7330014667        0.0006785258
