  22
        -27.11370929
 C         -0.6866834510       -0.6672809358       -0.0000792680
 C          0.6866702842       -0.6672876255        0.0000225718
 N         -1.0843941942        0.6465088916       -0.0000669799
 N          1.0844025104        0.6464922188        0.0000470683
 C          0.0000081564        1.4168421681        0.0000142228
 C         -2.4486530753        1.0985183914        0.0002034393
 C          2.4486581394        1.0985120181       -0.0001857134
 H         -2.4751531101        2.1855099789       -0.0008965088
 H          2.9678624790        0.7278109401        0.8843777062
 H          2.9671732564        0.7289206211       -0.8856283684
 H         -2.9670198025        0.7292858065        0.8858794344
 H         -2.9679903800        0.7274466769       -0.8841235116
 H          2.4751459471        2.1855045004        0.0004752557
 H          0.0000094812        2.4889534748       -0.0000010821
 C         -1.6594224177       -1.7825270146       -0.0002312388
 C          1.6594123519       -1.7825346076        0.0002566337
 H         -1.1421246075       -2.7361525409       -0.0008699804
 H          2.2986513681       -1.7370659458       -0.8805866196
 H          2.2984663923       -1.7367577410        0.8812180337
 H         -2.2988746164       -1.7365087385       -0.8808890554
 H         -2.2982691165       -1.7373185937        0.8809142630
 H          1.1421264525       -2.7361648504        0.0003994281
  22
        -27.11260123
 C         -0.6922751966       -0.6632848084       -0.0010037948
 C          0.6817440985       -0.6622450721       -0.0004860271
 N         -1.0897961902        0.6496212590       -0.0003605707
 N          1.0820206403        0.6488556807       -0.0004145241
 C         -0.0027553583        1.4185691108       -0.0002233173
 C         -2.4473407567        1.1281121835        0.0006315823
 C          2.4468981956        1.0988018839        0.0004136143
 H         -2.9726644603        0.7793814627       -0.8891552845
 H          2.9626190691        0.7327013573        0.8889642800
 H          2.9670805785        0.7219006490       -0.8809148611
 H         -2.4469761436        2.2155736492        0.0052563012
 H         -2.9739174649        0.7712005293        0.8863749703
 H          2.4755909189        2.1857065538       -0.0060406277
 H         -0.0025306506        2.4906117478       -0.0001033550
 C         -1.6245148732       -1.8163914404        0.0002802977
 C          1.6392160185       -1.7903597842        0.0004459267
 H         -2.6582578744       -1.4916198891       -0.0463228074
 H          2.2776216724       -1.7570292280       -0.8815665076
 H          2.2814894459       -1.7517980051        0.8793704962
 H         -1.4901911758       -2.4107172952        0.9029337873
 H         -1.4267605922       -2.4623377902       -0.8534621316
 H          1.1033681199       -2.7338099253        0.0047426315
  22
        -27.11237087
 C         -0.6835150152       -0.6686170580        0.0002885982
 C          0.6907626346       -0.6714350487        0.0004265205
 N         -1.0802871682        0.6448649544       -0.0001085119
 N          1.0900910838        0.6415144139        0.0010002084
 C          0.0045582597        1.4128592375        0.0003231611
 C         -2.4437883276        1.0986831134       -0.0006801328
 C          2.4442038763        1.1335116020       -0.0004456024
 H         -2.9617362554        0.7350994485        0.8876084558
 H          2.6124515677        1.7726508606        0.8665866395
 H          3.1400827636        0.3003775250        0.0347751139
 H         -2.9645644745        0.7231424606       -0.8822365506
 H         -2.4687868829        2.1857013199       -0.0078377757
 H          2.6327902417        1.7143985710       -0.9038310135
 H          0.0091063180        2.4850030791        0.0003948458
 C         -1.6597103836       -1.7810339372        0.0003569612
 C          1.6432228654       -1.8063518140       -0.0007418342
 H         -2.2911047852       -1.7397985568       -0.8864277225
 H          2.2750615452       -1.7852965729        0.8863742568
 H          1.1013550619       -2.7464579679       -0.0078873533
 H         -2.3062340399       -1.7262164238        0.8753060939
 H         -1.1470877129       -2.7370273818        0.0120596148
 H          2.2832608642       -1.7762948999       -0.8816477661
