  22
        -27.11370929
 C         -0.6866834510       -0.6672809358       -0.0000792680
 C          0.6866702842       -0.6672876255        0.0000225718
 N         -1.0843941942        0.6465088916       -0.0000669799
 N          1.0844025104        0.6464922188        0.0000470683
 C          0.0000081564        1.4168421681        0.0000142228
 C         -2.4486530753        1.0985183914        0.0002034393
 C          2.4486581394        1.0985120181       -0.0001857134
 H         -2.4751531101        2.1855099789       -0.0008965088
 H          2.9678624790        0.7278109401        0.8843777062
 H          2.9671732564        0.7289206211       -0.8856283684
 H         -2.9670198025        0.7292858065        0.8858794344
 H         -2.9679903800        0.7274466769       -0.8841235116
 H          2.4751459471        2.1855045004        0.0004752557
 H          0.0000094812        2.4889534748       -0.0000010821
 C         -1.6594224177       -1.7825270146       -0.0002312388
 C          1.6594123519       -1.7825346076        0.0002566337
 H         -1.1421246075       -2.7361525409       -0.0008699804
 H          2.2986513681       -1.7370659458       -0.8805866196
 H          2.2984663923       -1.7367577410        0.8812180337
 H         -2.2988746164       -1.7365087385       -0.8808890554
 H         -2.2982691165       -1.7373185937        0.8809142630
 H          1.1421264525       -2.7361648504        0.0003994281
