13
	Energy:       5.0155589
C         -1.66865       -1.39818        0.02786
C         -0.87857       -0.09794        0.13928
H         -0.99039       -2.26103        0.19425
H         -2.11685       -1.48976       -0.98428
H         -2.47681       -1.42806        0.78889
C         -1.78108        1.12040       -0.07377
H         -0.07268       -0.10073       -0.62628
H         -0.41251       -0.04180        1.14718
N         -0.99723        2.34924       -0.00921
H         -2.57732        1.14236        0.70402
H         -2.26289        1.05427       -1.07375
H         -0.57170        2.44146        0.94153
H         -1.64027        3.16142       -0.15256
