20
Properties=species:S:1:pos:R:3 energy=-8360.907063802084 free_energy=-8360.907063802084 pbc="F F F"
C        0.00000000      -0.00000000       0.66303000
N       -0.00867200       1.19335000       0.10616000
N        0.00867200      -1.19335000       0.10616000
C        0.22649700       1.49079200      -1.30469600
C       -0.22649700      -1.49079200      -1.30469600
H        0.72226800       2.46884300      -1.35722700
H       -0.72226900      -2.46884300      -1.35722700
H        0.89541900       0.74904400      -1.75317500
H       -0.89541800      -0.74904300      -1.75317500
H       -0.71560100       1.54377000      -1.87003900
H        0.71560100      -1.54377000      -1.87003900
C       -0.23870100       2.36235700       0.95332500
C        0.23870100      -2.36235700       0.95332500
H       -0.36719200       2.05489500       1.99805900
H        0.36719200      -2.05489500       1.99805900
H        0.61634400       3.04963300       0.87539800
H       -0.61634400      -3.04963300       0.87539800
H       -1.14863800       2.88351000       0.62089500
H        1.14863800      -2.88351100       0.62089500
H        0.00000000       0.00000000       1.75829500
