  17
        -21.61299064
 C         -0.7641580300       -1.2419805624       -0.0002295885
 C          0.7641304429       -1.2419847535        0.0002490607
 N         -1.0678859639        0.1902281244        0.0002449623
 N          1.0679077349        0.1901559789       -0.0004328662
 C          0.0000258325        0.9902161594       -0.0001023069
 H         -1.1906242984       -1.7217949978        0.8881877508
 H          1.1905825092       -1.7219906243       -0.8880821677
 C         -2.4282813231        0.6264191453        0.0000623541
 C          2.4282702383        0.6264257736        0.0001395530
 H         -2.9564196604        0.2613506975        0.8883389462
 H          2.4405208781        1.7137220112        0.0009870079
 H         -2.4406139818        1.7137155632       -0.0007562644
 H          2.9563344080        0.2600120156        0.8878737735
 H         -2.9565882571        0.2599585690       -0.8874969375
 H          2.9567010901        0.2614169879       -0.8879551929
 H         -1.1899369347       -1.7209089773       -0.8894905257
 H          1.1898947014       -1.7208252504        0.8895859259
