  17
  -21.6129906400000       0.108223712223523      !md2
 C         -0.7641580300       -1.2419805624       -0.0002295885
 C          0.7641304429       -1.2419847535        0.0002490607
 N         -1.0678859639        0.1902281244        0.0002449623
 N          1.0679077349        0.1901559789       -0.0004328662
 C          0.0000258325        0.9902161594       -0.0001023069
 H         -1.1906242984       -1.7217949978        0.8881877508
 H          1.1905825092       -1.7219906243       -0.8880821677
 C         -2.4282813231        0.6264191453        0.0000623541
 C          2.4282702383        0.6264257736        0.0001395530
 H         -2.9564196604        0.2613506975        0.8883389462
 H          2.4405208781        1.7137220112        0.0009870079
 H         -2.4406139818        1.7137155632       -0.0007562644
 H          2.9563344080        0.2600120156        0.8878737735
 H         -2.9565882571        0.2599585690       -0.8874969375
 H          2.9567010901        0.2614169879       -0.8879551929
 H         -1.1899369347       -1.7209089773       -0.8894905257
 H          1.1898947014       -1.7208252504        0.8895859259
  17
  -21.6129906300000       0.108222567011747      !gc
 C         -0.7641519899       -1.2419723847        0.0001058326
 C          0.7641407069       -1.2419791034       -0.0000867724
 N         -1.0679074531        0.1901970904        0.0005937301
 N          1.0679041492        0.1901949107       -0.0008128438
 C          0.0000063752        0.9902154678       -0.0001248272
 H         -1.1902165104       -1.7216743919        0.8888010553
 H          1.1902087554       -1.7218143958       -0.8886999248
 C         -2.4282720545        0.6264287647       -0.0001815875
 C          2.4282833966        0.6263930147        0.0004273314
 H         -2.4405797387        1.7137167985        0.0006427765
 H          2.4406186070        1.7136941990       -0.0014214004
 H         -2.9559089657        0.2613849618       -0.8887589352
 H          2.9552648056        0.2622188608        0.8897503999
 H         -2.9571513802        0.2600455110        0.8870601073
 H          2.9577419753        0.2590631949       -0.8860811469
 H         -1.1903528181       -1.7210529494       -0.8888779651
 H          1.1903445079       -1.7209163412        0.8889619537
  17
  -21.6129906200000       0.108221421812497      !gc
 C         -0.7641484224       -1.2419901839        0.0000493014
 C          0.7641370480       -1.2419913788       -0.0000320885
 N         -1.0679134848        0.1902196422       -0.0004930755
 N          1.0678962046        0.1901765762       -0.0000179584
 C          0.0000219916        0.9902072787       -0.0003145818
 H         -1.1902328465       -1.7209680470        0.8891195276
 H          1.1901761887       -1.7212879453       -0.8889678442
 C         -2.4282634337        0.6264266338        0.0004405861
 C          2.4282695590        0.6264111307        0.0001869880
 H         -2.9570847538        0.2607917157       -0.8871491199
 H          2.4405659780        1.7137256645       -0.0022236464
 H         -2.9558579714        0.2606468937        0.8887604475
 H          2.9558154990        0.2626975264        0.8893809300
 H         -2.4405682084        1.7137916374        0.0005730957
 H          2.9572147704        0.2586639626       -0.8864743462
 H         -1.1903541036       -1.7217262213       -0.8885487052
 H          1.1903660710       -1.7214628548        0.8886964471
  17
  -21.6129906200000       0.108221421812497      !gc
 C         -0.7641146083       -1.2420419156        0.0003737452
 C          0.7640997048       -1.2420506895       -0.0003673722
 N         -1.0679123700        0.1902694499       -0.0002796336
 N          1.0679147938        0.1902579845        0.0005732052
 C          0.0000053032        0.9901986794        0.0001373673
 H         -1.1897999615       -1.7207331292        0.8897933087
 H          1.1897758886       -1.7205680230       -0.8898863386
 C         -2.4283186625        0.6264201883       -0.0000659043
 C          2.4283263913        0.6263901195       -0.0002780264
 H         -2.4407362500        1.7137061569       -0.0004943369
 H          2.9574704815        0.2592483795        0.8864903635
 H         -2.9567671553        0.2603392919       -0.8876993869
 H          2.9556441963        0.2620724190       -0.8893325147
 H         -2.9563435441        0.2610559064        0.8881268275
 H          2.4407616237        1.7136749535        0.0014011811
 H         -1.1907984600       -1.7219015469       -0.8878927414
 H          1.1907817990       -1.7220926242        0.8877995386
  17
  -21.6129906200000       0.108221421812497      !mtd10
 C         -0.7641470014       -1.2420186107        0.0001846756
 C          0.7641263282       -1.2420767970       -0.0001223755
 N         -1.0678824343        0.1902987841        0.0002280392
 N          1.0679167706        0.1900464811       -0.0006133185
 C          0.0000802994        0.9901628393       -0.0000816077
 H         -1.1901909499       -1.7212799356        0.8890941999
 H          1.1901222763       -1.7218112264       -0.8888274087
 C         -2.4282763224        0.6264487765       -0.0000414670
 C          2.4282386374        0.6265640338        0.0003548916
 H         -2.9566281113        0.2606158873        0.8876938718
 H          2.9556101443        0.2622781121        0.8894238060
 H         -2.4406454229        1.7137463621        0.0000293183
 H          2.9573483871        0.2596054435       -0.8865131542
 H         -2.9563059352        0.2607908931       -0.8881187422
 H          2.4401270635        1.7138895178       -0.0011922943
 H         -1.1904893315       -1.7212783864       -0.8885761642
 H          1.1903132406       -1.7211759867        0.8888358096
  17
  -21.6129905900000       0.108217986286236      !mtd11
 C         -0.7641669105       -1.2419646091        0.0007586859
 C          0.7641473583       -1.2419688241       -0.0007403057
 N         -1.0678897888        0.1902113407        0.0000859891
 N          1.0679045677        0.1901413313        0.0003901256
 C          0.0000274699        0.9902006068        0.0003046763
 H         -1.1891757280       -1.7205412457        0.8905968572
 H          1.1893969457       -1.7203856186       -0.8905219997
 C         -2.4283006196        0.6264316523       -0.0004527535
 C          2.4282830766        0.6264317248       -0.0001850694
 H         -2.4405470267        1.7136693592        0.0003808030
 H          2.9560784176        0.2604915493       -0.8882872476
 H         -2.9558705366        0.2614642584       -0.8891222294
 H          2.4405478002        1.7137451206       -0.0002517788
 H         -2.9571800919        0.2599390220        0.8867589120
 H          2.9568318964        0.2608033728        0.8875621186
 H         -1.1913262611       -1.7221792782       -0.8870826668
 H          1.1911539063       -1.7223283139        0.8871017316
  17
  -21.6129905700000       0.108215695996392      !md4
 C         -0.7641397713       -1.2420188365        0.0003010944
 C          0.7640942079       -1.2420493814       -0.0003094180
 N         -1.0679200424        0.1901720623       -0.0000567225
 N          1.0678707181        0.1903172686        0.0003085297
 C         -0.0000032856        0.9902063592        0.0000517573
 H         -1.1898945118       -1.7210631229        0.8895238192
 H          1.1899579717       -1.7208245253       -0.8895633645
 C         -2.4282263229        0.6264416401       -0.0000935818
 C          2.4283212031        0.6263801626       -0.0001323621
 H         -2.9570964312        0.2581143041       -0.8865624857
 H          2.9556881099        0.2621472153       -0.8891545279
 H         -2.9559284474        0.2634402375        0.8893318281
 H          2.4407711725        1.7136853288        0.0017700690
 H         -2.4404705156        1.7137466837       -0.0033387598
 H          2.9572327248        0.2589946560        0.8866692048
 H         -1.1907229309       -1.7217295931       -0.8881423658
 H          1.1905997678       -1.7216989985        0.8881421869
  17
  -21.6129905600000       0.108214550869444      !mtd6
 C         -0.7641804454       -1.2419538176        0.0000035920
 C          0.7641320054       -1.2420049518        0.0000852075
 N         -1.0678889056        0.1902116283       -0.0012126138
 N          1.0679108748        0.1901873005       -0.0005127433
 C          0.0000221022        0.9902076226       -0.0007819827
 H         -1.1903762297       -1.7205280712        0.8892396133
 H          1.1901799921       -1.7217678650       -0.8885585283
 C         -2.4282832853        0.6264055517        0.0011344452
 C          2.4282940187        0.6264207327        0.0007307274
 H         -2.9547799545        0.2609246810        0.8901827231
 H          2.9570580274        0.2617979961       -0.8872957516
 H         -2.4406619393        1.7137247131        0.0008377831
 H          2.4405548704        1.7136903180        0.0020616466
 H         -2.9581024287        0.2603593955       -0.8856738202
 H          2.9559716697        0.2596061061        0.8885109280
 H         -1.1902188102       -1.7221241256       -0.8884113592
 H          1.1902554550       -1.7209873976        0.8891174750
  17
  -21.6129905400000       0.108212260651899      !mtd10
 C         -0.7641238686       -1.2419535887        0.0002569531
 C          0.7641604163       -1.2419447437       -0.0002535927
 N         -1.0678996360        0.1902151663       -0.0009129628
 N          1.0678997183        0.1902185123        0.0001205195
 C         -0.0000034443        0.9902350976       -0.0005234354
 H         -1.1900322257       -1.7204800587        0.8896935596
 H          1.1899869616       -1.7210302794       -0.8894194149
 C         -2.4283558569        0.6264081073        0.0006879806
 C          2.4283028648        0.6263204185        0.0003238821
 H         -2.9574399531        0.2610380663       -0.8867746764
 H          2.9570371879        0.2577339934        0.8867142001
 H         -2.9555459899        0.2602382521        0.8889708846
 H          2.9559043098        0.2634004358       -0.8890913761
 H         -2.4406215907        1.7136263161        0.0011482338
 H          2.4408265769        1.7136122654        0.0036341578
 H         -1.1905102835       -1.7222011558       -0.8879715059
 H          1.1906308746       -1.7216076603        0.8882478904
  17
  -21.6103342400000       6.509168472564590E-003 !gc
 C         -0.7595567905       -1.2496913333        0.0000108050
 C          0.7685930121       -1.2438210620       -0.0000654733
 N         -1.0694554033        0.1834812069        0.0011995300
 N          1.0673501902        0.1896571291        0.0000773223
 C         -0.0028119381        0.9855425609        0.0005658875
 H         -1.1802546377       -1.7326059179        0.8891863597
 H          1.1965262494       -1.7213726122       -0.8890346228
 C         -2.4305204682        0.6418143842       -0.0009383735
 C          2.4263176487        0.6301844933       -0.0004912239
 H         -3.1029043065       -0.2150518165        0.0143109985
 H          2.4350215303        1.7175054051       -0.0003840635
 H         -2.6317476239        1.2624520104        0.8758329979
 H          2.9561338892        0.2659477857        0.8870986682
 H         -2.6392029274        1.2365325996       -0.8940672834
 H          2.9552637267        0.2661529520       -0.8887003937
 H         -1.1802272053       -1.7314220215       -0.8898181998
 H          1.1965577745       -1.7215777801        0.8887754128
  17
  -21.6103340800000       6.508066490902821E-003 !gc
 C         -0.7596216655       -1.2496324069        0.0000664636
 C          0.7685755315       -1.2439128766       -0.0001338366
 N         -1.0694446424        0.1834009334        0.0012982648
 N          1.0673686283        0.1895284079        0.0003834809
 C         -0.0027893840        0.9854916740        0.0007777669
 H         -1.1801579848       -1.7325766012        0.8893437713
 H          1.1963595148       -1.7212785829       -0.8892607333
 C         -2.4304059710        0.6418693305       -0.0011517775
 C          2.4262542701        0.6303748084       -0.0007568245
 H         -2.6318146225        1.2621323469        0.8758537819
 H          2.9569960333        0.2646399144        0.8855722957
 H         -2.6387445043        1.2370451408       -0.8940924801
 H          2.9544741424        0.2682432029       -0.8902323691
 H         -3.1028802282       -0.2149272682        0.0134832598
 H          2.4345365919        1.7177100178        0.0013184539
 H         -1.1804736497       -1.7315083762       -0.8896336456
 H          1.1965688717       -1.7219392159        0.8885554644
  17
  -21.6103339900000       6.507446708199244E-003 !gc
 C         -0.7595343119       -1.2495426208       -0.0003224018
 C          0.7685449135       -1.2438811360        0.0002873859
 N         -1.0694833910        0.1837163898        0.0014165309
 N          1.0673670385        0.1896584801       -0.0004234589
 C         -0.0027616861        0.9855907359        0.0004555371
 H         -1.1807577436       -1.7328837973        0.8883367308
 H          1.1968941592       -1.7220575605       -0.8881028263
 C         -2.4305788810        0.6415365794       -0.0008397438
 C          2.4263845948        0.6301099661       -0.0002928358
 H         -2.6390714056        1.2375345429       -0.8931974706
 H          2.9559355778        0.2651479653       -0.8876992768
 H         -3.1025592604       -0.2155689730        0.0128214832
 H          2.4354410376        1.7174323910       -0.0013359829
 H         -2.6326192698        1.2609447909        0.8766595209
 H          2.9554128700        0.2668646326        0.8881460782
 H         -1.1798351963       -1.7306602096       -0.8906723040
 H          1.1960852776       -1.7209119655        0.8897289088
  17
  -21.6103335300000       6.504279851601729E-003 !gc
 C         -0.7595311860       -1.2495253754       -0.0002198568
 C          0.7685539554       -1.2438710587        0.0001776876
 N         -1.0694786003        0.1837256008        0.0011098041
 N          1.0673633186        0.1896662079        0.0002691139
 C         -0.0027583246        0.9856043715        0.0006581104
 H         -1.1805996976       -1.7326049015        0.8886686130
 H          1.1967394470       -1.7215018402       -0.8885996699
 C         -2.4305917162        0.6415184219       -0.0008770231
 C          2.4263878651        0.6300874225       -0.0007027961
 H         -2.6334597609        1.2585858143        0.8780973219
 H          2.9545967874        0.2674825407       -0.8899050349
 H         -2.6383278248        1.2397974041       -0.8918474750
 H          2.4354604671        1.7174066138        0.0010816518
 H         -3.1026060740       -0.2156423472        0.0100014886
 H          2.9567602326        0.2644481410        0.8859303148
 H         -1.1799961610       -1.7309251230       -0.8903341166
 H          1.1962726724       -1.7214429468        0.8892305970
