  19
        -22.60917602
 C          0.0000293578       -0.7309451553        0.0000582968
 N          1.1705419236       -0.1011420645       -0.0297615872
 N         -1.1704996796       -0.1011721747        0.0299748148
 C          1.5291407883        1.3114213690       -0.1196577007
 C         -1.5292931191        1.3113645083        0.1195908284
 H          2.5047855661        1.3929457007       -0.6024944667
 H         -2.5048306635        1.3928318995        0.6026536884
 H          0.8117216661        1.8567099298       -0.7265202167
 H         -0.8118327414        1.8569624026        0.7261163964
 H          1.6021170212        1.7756186105        0.8697977442
 H         -1.6026244476        1.7752743666       -0.8699775808
 C          2.3343151529       -0.9533970028        0.0901791338
 C         -2.3342151506       -0.9534883633       -0.0903246174
 H          2.0030993287       -1.9853941789        0.1719499853
 H         -2.9134966811       -0.6919662838       -0.9815081974
 H          2.9834438208       -0.8525587700       -0.7855331292
 H         -2.0029514295       -1.9854985502       -0.1716795831
 H          2.9140168391       -0.6916687452        0.9810255719
 H         -2.9837616024       -0.8524278504        0.7850424838
  19
        -22.60824458
 C          0.0058183082       -0.7107780243       -0.0006379528
 N          1.1847759234       -0.0975148221       -0.0006505506
 N         -1.1665235001       -0.0876145094       -0.0004842247
 C          1.5563982636        1.3174257253        0.0025136738
 C         -1.5835558690        1.3096726144       -0.0033333031
 H          1.1685243927        1.8255107969        0.8888314566
 H         -2.1761957645        1.5180804115        0.8939046195
 H          2.6422608400        1.3985278551        0.0207297864
 H         -0.7455064693        1.9916893847       -0.0299976754
 H          1.1985398631        1.8230517211       -0.8981100075
 H         -2.2152464680        1.4999119570       -0.8774681611
 C          2.3329355997       -0.9809678164       -0.0062701093
 C         -2.3233061920       -0.9594190924        0.0084469562
 H          1.9786818518       -2.0085953994       -0.0112148767
 H         -2.9361374858       -0.7780756821        0.8972581437
 H          2.9495103896       -0.8118116341       -0.8945673356
 H         -2.9446602105       -0.7855048944       -0.8758922446
 H          2.9514124309       -0.8211007444        0.8824571698
 H         -1.9852906563       -1.9921591544        0.0112676247
