  16
        -28.83756809
 N         -1.0904649365       -1.1517359783        0.0000751242
 C          0.0000161280       -1.9174223433        0.0000521180
 N          1.0904789297       -1.1516845340        0.0000600243
 C          0.6908293610        0.1615381034        0.0000221989
 C         -0.6909072077        0.1614990237        0.0000266833
 C         -2.4604291810       -1.5890756413       -0.0000882493
 C          2.4604206704       -1.5890879694       -0.0000712443
 H         -2.9725913899       -1.2042693366        0.8822158159
 H         -2.4999010948       -2.6753239149        0.0025716881
 H         -2.9710820373       -1.2087102956       -0.8852119228
 H          2.9724695163       -1.2047277638        0.8825023502
 H          2.9712464821       -1.2083190286       -0.8849266271
 H          2.4997946938       -2.6753292376        0.0020780587
 H         -0.0000957342       -2.9912723728        0.0000817971
 Cl         1.7896422548        1.4506172409       -0.0000105310
 Cl        -1.7896194542        1.4506430987       -0.0000034633
  16
        -28.83689217
 N         -1.0853773233       -1.1533944728        0.0000023202
 C          0.0049511057       -1.9177821863        0.0000120085
 N          1.0974343395       -1.1521660364        0.0000513647
 C          0.6967627010        0.1606305165        0.0000116653
 C         -0.6856913298        0.1589979339       -0.0000000570
 C         -2.4549924396       -1.5912484774       -0.0000287262
 C          2.4588153045       -1.6219608105       -0.0000312437
 H         -2.9663610371       -1.2090808003       -0.8839877324
 H         -2.9666841944       -1.2080942705        0.8833092713
 H         -2.4941407838       -2.6774944986        0.0005610269
 H          3.1284827821       -0.7652900344        0.0030168548
 H          2.6511153026       -2.2232543259       -0.8884425781
 H          2.6494002031       -2.2283322833        0.8852831759
 H          0.0085366189       -2.9917077253        0.0000132505
 Cl         1.7721134079        1.4700868136       -0.0000134485
 Cl        -1.7838944153        1.4490152457        0.0000115690
