  27
        -33.26171739
 C          2.4315287183        0.0019774196       -0.5473420123
 C         -2.4315197752        0.0025562426       -0.5473435806
 N          1.0655955613       -0.0012069918       -0.0835998803
 N         -1.0655865649       -0.0006705692       -0.0836013411
 C          0.6758472440       -0.0069605316        1.2329832138
 C         -0.6758420286       -0.0066750515        1.2329863116
 C          0.0000031038        0.0028554096       -0.9242964816
 C          3.1589771039        1.2647422823       -0.0835033709
 C          3.1634882198       -1.2603653517       -0.0896236466
 C         -3.1626722018       -1.2609970225       -0.0916634898
 C         -3.1598148345        1.2640710429       -0.0814623509
 H          1.3660487935       -0.0107945499        2.0519289091
 H         -1.3660699932       -0.0102054367        2.0519084236
 H          2.3664328687        0.0045755520       -1.6415585499
 H         -2.3664184511        0.0069176959       -1.6415558547
 H          3.2470940337        1.2828697453        1.0007488438
 H          4.1619731990       -1.2886641686       -0.5177450420
 H         -4.1611418380       -1.2892934626       -0.5198193544
 H         -3.2485330343        1.2801377916        1.0027681369
 H          4.1573225335        1.2988901041       -0.5115134407
 H          2.6202556160       -2.1455780695       -0.4126190112
 H         -2.6188137545       -2.1452977441       -0.4161019156
 H         -4.1579610343        1.2985197691       -0.5099113221
 H          2.6123700945        2.1494574644       -0.4021623754
 H          3.2517657362       -1.2835218424        0.9945088678
 H         -3.2508763751       -1.2859425520        0.9924423222
 H         -2.6135203815        2.1496688711       -0.3981773011
