15
Properties=species:S:1:pos:R:3 energy=-8347.217610677084 free_energy=-8347.217610677084 pbc="F F F"
N       -0.00000000       1.06840100       1.11244400
N        0.00000000      -1.06840200       1.11244400
C       -0.00000000       0.67853700      -0.21323700
C        0.00000000      -0.67853700      -0.21323700
C        0.00000100      -0.00000000       1.95509400
Cl      -0.00000000       1.76252800      -1.52609300
Cl      -0.00000000      -1.76252800      -1.52609400
C       -0.00000000       2.45263600       1.55038600
C        0.00000000      -2.45263600       1.55038600
H       -0.00000100       2.45212600       2.64630800
H        0.00000100      -2.45212400       2.64630800
H       -0.89571300       2.97384300       1.18295600
H       -0.89571400      -2.97384200       1.18295800
H        0.89571300      -2.97384300       1.18295600
H        0.89571300       2.97384200       1.18295800
