  15
  -28.6917218700000       0.100398184014066      !mtd8
 N         -1.0710271630        1.1743724675       -0.0001121366
 N          1.0710660200        1.1743524170       -0.0000846251
 C         -0.6814007963       -0.1418357148       -0.0000547548
 C          0.6814016776       -0.1418168048       -0.0000551591
 C          0.0000163944        2.0060936517       -0.0001134358
 Cl        -1.7796533916       -1.4501274166       -0.0000858815
 Cl         1.7796114058       -1.4501929491        0.0001130039
 C         -2.4370290094        1.6137887709        0.0003029064
 C          2.4370729561        1.6137834760       -0.0000257444
 H         -2.9561827805        1.2481271699        0.8882433750
 H          2.9565784909        1.2479178213       -0.8876299999
 H         -2.9572988586        1.2460143599       -0.8860754864
 H          2.4340416222        2.7010699938        0.0009463026
 H          2.9570578852        1.2462583300        0.8866231418
 H         -2.4339890730        2.7010899457       -0.0009682573
  15
  -28.6917218700000       0.100398184014066      !md4
 N         -1.0710415755        1.1743882103       -0.0000930710
 N          1.0710516484        1.1743685497       -0.0000518936
 C         -0.6814250291       -0.1418162191        0.0000227068
 C          0.6813815005       -0.1418139647       -0.0001008764
 C          0.0000079151        2.0060967828       -0.0001916146
 Cl        -1.7796106848       -1.4501734401       -0.0000464852
 Cl         1.7796117850       -1.4501683795        0.0000455808
 C         -2.4370449176        1.6138389795        0.0002713776
 C          2.4370648032        1.6137393466        0.0000491638
 H         -2.4340420016        2.7011097504       -0.0011978673
 H          2.9567143587        1.2474393235       -0.8872939618
 H         -2.9561692747        1.2483871458        0.8882762976
 H          2.4341032967        2.7010407412        0.0006094676
 H          2.9568461466        1.2465612036        0.8869746354
 H         -2.9574437778        1.2458751900       -0.8859270643
  15
  -28.6917218700000       0.100398184014066      !md1
 N         -1.0710353633        1.1743854748        0.0001125689
 N          1.0710592148        1.1743359679       -0.0000733784
 C         -0.6814223653       -0.1418183482        0.0000121475
 C          0.6813857331       -0.1418525187        0.0000116634
 C          0.0000404005        2.0060872292       -0.0000397216
 Cl        -1.7796712753       -1.4501294323       -0.0001335142
 Cl         1.7796528817       -1.4501518525        0.0001138257
 C         -2.4370736961        1.6137621037        0.0001492123
 C          2.4370908290        1.6137423963       -0.0001209909
 H         -2.9571905694        1.2455922205       -0.8861304300
 H          2.9568509888        1.2470631337        0.8869935440
 H         -2.4341137218        2.7010574403       -0.0015906588
 H          2.9568136716        1.2470198514       -0.8872385127
 H          2.4340901806        2.7010366503       -0.0001560474
 H         -2.9563840908        1.2484839843        0.8881233189
  15
  -28.6917218700000       0.100398184014066      !mtd8
 N         -1.0710217695        1.1743849594        0.0000215013
 N          1.0710568779        1.1743527253        0.0000778501
 C         -0.6814021641       -0.1418436934        0.0000552125
 C          0.6813945550       -0.1418183768       -0.0000331455
 C          0.0000135792        2.0061036929       -0.0000047045
 Cl        -1.7796447028       -1.4501243296        0.0002339292
 Cl         1.7796183804       -1.4501759149       -0.0002507454
 C         -2.4370427569        1.6137758194       -0.0001170727
 C          2.4370714703        1.6137437987        0.0000653563
 H         -2.9566280541        1.2477552263        0.8873542626
 H          2.9567579169        1.2472738790        0.8873625164
 H         -2.9568498136        1.2463687084       -0.8868764852
 H          2.9567662694        1.2467206234       -0.8869767076
 H          2.4340351605        2.7010607068       -0.0002935470
 H         -2.4340568028        2.7010341473       -0.0009498179
  15
  -28.6917218700000       0.100398184014066      !mtd7
 N         -1.0710259186        1.1743715038        0.0001220851
 N          1.0710752802        1.1743576712        0.0000419567
 C         -0.6813870903       -0.1418371119       -0.0000300868
 C          0.6813990097       -0.1418272080        0.0000021394
 C          0.0000047804        2.0060794192        0.0000824524
 Cl        -1.7797485835       -1.4501016587       -0.0000042643
 Cl         1.7797068881       -1.4501635200        0.0000125276
 C         -2.4370695692        1.6137405587       -0.0000179999
 C          2.4371110820        1.6137238806       -0.0001754936
 H         -2.9563149653        1.2482107260       -0.8879764725
 H          2.9568624902        1.2463378716       -0.8869987966
 H         -2.4340634332        2.7010650268        0.0014116343
 H          2.4341464019        2.7010083974       -0.0009694410
 H          2.9567704200        1.2476644562        0.8872543349
 H         -2.9573139598        1.2457852649        0.8863647097
  15
  -28.6917218700000       0.100398184014066      !input
 N         -1.0710310282        1.1743744122        0.0002300087
 N          1.0710659071        1.1743562825        0.0000664603
 C         -0.6813899182       -0.1418242541        0.0000377035
 C          0.6814108890       -0.1418399276        0.0000723691
 C          0.0000287305        2.0061034444        0.0000867356
 Cl        -1.7796661285       -1.4501096593       -0.0001554194
 Cl         1.7796258195       -1.4501531300        0.0001125916
 C         -2.4370853797        1.6137327148        0.0000071540
 C          2.4371053643        1.6137091035       -0.0002978199
 H         -2.9566089595        1.2468957871       -0.8872322378
 H          2.4341626412        2.7009947043       -0.0002355457
 H         -2.4340928466        2.7010785000       -0.0001235020
 H          2.9571274352        1.2468806229        0.8866222274
 H          2.9565278691        1.2470270927       -0.8876325882
 H         -2.9570134109        1.2470714862        0.8871066030
  15
  -28.6917218600000       0.100397121611573      !mtd6
 N         -1.0710369219        1.1743664750        0.0000636597
 N          1.0710673062        1.1743499727       -0.0000686462
 C         -0.6813962329       -0.1418237118        0.0000351395
 C          0.6814045975       -0.1418474384        0.0000101002
 C          0.0000254232        2.0060867360       -0.0000668257
 Cl        -1.7796895393       -1.4501195166       -0.0003085274
 Cl         1.7796432485       -1.4501683798        0.0002799551
 C         -2.4370484802        1.6137614861        0.0003122162
 C          2.4370957164        1.6137606252       -0.0002238091
 H         -2.4339574564        2.7010988525       -0.0007154711
 H          2.9567277313        1.2477891646        0.8872798557
 H         -2.9564615506        1.2478206077        0.8880804810
 H          2.9569460051        1.2463688893       -0.8869764852
 H          2.4340968934        2.7011135571       -0.0010472013
 H         -2.9571111414        1.2461635693       -0.8863431438
  15
  -28.6917218600000       0.100397121611573      !mtd13
 N         -1.0710432398        1.1743650950       -0.0000372201
 N          1.0710572752        1.1743414798        0.0000409657
 C         -0.6814156083       -0.1418181926       -0.0000617861
 C          0.6813951273       -0.1418210252        0.0000031187
 C          0.0000109328        2.0060892529        0.0000179948
 Cl        -1.7796293181       -1.4501489414        0.0002263319
 Cl         1.7796117012       -1.4501587231       -0.0002089354
 C         -2.4370607404        1.6138102694       -0.0000521179
 C          2.4370955212        1.6137434338        0.0000417808
 H         -2.4340274869        2.7011202952       -0.0029128076
 H          2.4340929258        2.7010324983        0.0003263116
 H         -2.9560919693        1.2495081244        0.8885048807
 H          2.9568946340        1.2467656379        0.8870240389
 H          2.9567378958        1.2472729627       -0.8872246645
 H         -2.9574820623        1.2447006666       -0.8857738594
  15
  -28.6917218600000       0.100397121611573      !mtd8
 N         -1.0710382016        1.1743700501        0.0000264694
 N          1.0710553329        1.1743461762        0.0000061183
 C         -0.6814119186       -0.1418478059       -0.0000364480
 C          0.6813923667       -0.1418411445       -0.0000902693
 C          0.0000162986        2.0060834014       -0.0000900518
 Cl        -1.7796805058       -1.4501243548        0.0003280265
 Cl         1.7796502168       -1.4501359821       -0.0003036404
 C         -2.4370361172        1.6137601053       -0.0001110630
 C          2.4370957673        1.6137176105        0.0002027617
 H         -2.9574832036        1.2450554336        0.8857352099
 H          2.4341173993        2.7010170325       -0.0004405049
 H         -2.9560274974        1.2490801589       -0.8884933339
 H          2.9565899301        1.2475213779        0.8876980464
 H          2.9570267467        1.2464585634       -0.8865774777
 H         -2.4340681041        2.7010366576        0.0022578545
  15
  -28.6903738400000       2.411094115769243E-002 !gc
 N         -1.0676375501        1.1760851027        0.0005286109
 N          1.0765270654        1.1775902377       -0.0004219520
 C         -0.6769475281       -0.1392576017        0.0002236385
 C          0.6863007776       -0.1386229660       -0.0000401620
 C          0.0019755195        2.0074944512        0.0001780837
 Cl        -1.7730711355       -1.4497187144       -0.0000799531
 Cl         1.7633051782       -1.4658769120        0.0000365504
 C         -2.4337597740        1.6152165861       -0.0002471127
 C          2.4389803821        1.6375364832       -0.0000132770
 H         -2.4311047172        2.7023803878        0.0131586097
 H          3.1107674743        0.7817396870       -0.0172338897
 H         -2.9570593584        1.2369856003        0.8798025871
 H          2.6195176382        2.2605138458       -0.8762087215
 H          2.6299632037        2.2322369653        0.8936459863
 H         -2.9493189459        1.2595812371       -0.8943257420
  15
  -28.6903736300000       2.410558379753627E-002 !gc
 N         -1.0676230606        1.1761035694       -0.0001558127
 N          1.0765164890        1.1776361122       -0.0001898950
 C         -0.6768928191       -0.1392006693       -0.0000000399
 C          0.6863485205       -0.1386362346       -0.0000172158
 C          0.0019852332        2.0075419088       -0.0001893602
 Cl        -1.7730834158       -1.4496255334        0.0000306901
 Cl         1.7632730606       -1.4659979454       -0.0000385127
 C         -2.4337426297        1.6150909059        0.0002809537
 C          2.4389800317        1.6375985308        0.0001786616
 H         -2.4310575459        2.7023725333       -0.0045980479
 H          2.6262513960        2.2418541812        0.8881467384
 H         -2.9516646557        1.2521814505        0.8900184916
 H          3.1107888734        0.7816543098       -0.0053682548
 H          2.6231643270        2.2511825517       -0.8819432549
 H         -2.9547465695        1.2439506846       -0.8841911977
  15
  -28.6903736100000       2.410507363489471E-002 !md3
 N         -1.0676222188        1.1761088763        0.0001568109
 N          1.0765195719        1.1776608819        0.0000303014
 C         -0.6769276566       -0.1391942664        0.0000255725
 C          0.6863087667       -0.1385883081        0.0000113076
 C          0.0019470783        2.0075700651        0.0001802688
 Cl        -1.7730664844       -1.4496380488       -0.0000213967
 Cl         1.7632908961       -1.4659802115        0.0000225766
 C         -2.4337659313        1.6150794063       -0.0000863174
 C          2.4390050729        1.6375145687       -0.0002314480
 H         -2.9541900159        1.2451505547        0.8852111532
 H          2.6240051107        2.2489061394        0.8832411789
 H         -2.9522312481        1.2509238147       -0.8890143159
 H          3.1107211580        0.7814916313        0.0027245113
 H          2.6256261868        2.2439000653       -0.8868683140
 H         -2.4311499875        2.7023766091        0.0032630316
  15
  -28.6903733300000       2.409793249076008E-002 !gc
 N         -1.0676333089        1.1761049422        0.0004526044
 N          1.0765107918        1.1775908861       -0.0005855047
 C         -0.6769321854       -0.1392376903       -0.0001139624
 C          0.6863196564       -0.1386201371       -0.0003275107
 C          0.0019787258        2.0075159680       -0.0005126990
 Cl        -1.7730569660       -1.4497008186       -0.0001695896
 Cl         1.7632846934       -1.4659248367        0.0002515857
 C         -2.4337403194        1.6151916408        0.0003236638
 C          2.4389559405        1.6375652924        0.0003594393
 H         -2.9494174196        1.2602913356       -0.8940083503
 H          2.6280964867        2.2360820169        0.8918458718
 H         -2.4309798730        2.7024072967        0.0143760181
 H          3.1107583457        0.7817044854       -0.0120058849
 H          2.6212019637        2.2568491451       -0.8781250295
 H         -2.9568914460        1.2363015457        0.8801103488
