28
Properties=species:S:1:pos:R:3 energy=-8360.907063802084 free_energy=-8360.907063802084 pbc="F F F"
C        1.25301500      -0.19857800      -0.58577000
C        0.26958900      -1.11917000      -0.78192700
N        0.70298200       0.82780700       0.15164900
N       -0.86250400      -0.63838100      -0.15972000
C       -0.57201800       0.53562100       0.39394200
H        2.29219900      -0.19280400      -0.90967000
H        0.28409700      -2.07007100      -1.31141100
C        1.39742100       2.05750500       0.59097300
C       -2.18225400      -1.30364800      -0.11185400
H        0.64837900       2.60457700       1.18337800
H       -2.80951300      -0.63460300       0.49632900
H       -1.26615200       1.15827300       0.95897900
C        1.78977900       2.89279700      -0.62001200
C       -2.76602700      -1.40366200      -1.51415500
C       -2.06097100      -2.65121800       0.58541100
C        2.57944300       1.70052700       1.48040300
H        2.53170000       2.36461300      -1.23944800
H       -2.15179100      -2.05852900      -2.15229700
H       -1.43700700      -3.34504200       0.00028100
H        3.35222900       1.15719100       0.91425400
H        0.91195000       3.12852200      -1.23943600
H       -2.83588200      -0.41221400      -1.98505800
H       -1.62440700      -2.54011700       1.58884000
H        2.26238500       1.08268100       2.33327500
H        2.23930300       3.83654300      -0.27910200
H       -3.77605500      -1.83425300      -1.45675300
H       -3.06062800      -3.09755200       0.68697700
H        3.03050700       2.62492400       1.86870100
