33
Properties=species:S:1:pos:R:3 energy=-8347.217610677084 free_energy=-8347.217610677084 pbc="F F F"
C        0.00000100       0.68106300      -1.28490200
C        0.00000100      -0.68106300      -1.28490100
C        0.00000500       0.00000000       0.90038500
N        0.00000300       1.06170900       0.05829300
N        0.00000300      -1.06170800       0.05829400
C        0.00000000       1.64563200      -2.42484100
C       -0.00000100      -1.64563300      -2.42484000
H       -0.88959500       2.29577200      -2.41170600
H       -0.88959800      -2.29577200      -2.41170400
H        0.88959400      -2.29577300      -2.41170700
H        0.88959700       2.29577100      -2.41170800
H       -0.00000100       1.09869000      -3.37755200
H       -0.00000200      -1.09869100      -3.37755200
C       -1.26758600       2.76351800       1.31288800
C       -1.26758700      -2.76351900       1.31288500
C        1.26758600      -2.76352200       1.31288800
C        1.26758600       2.76352400       1.31288600
C        0.00000000       2.45387600       0.52529000
C        0.00000100      -2.45387500       0.52529000
H       -2.16450700       2.55727300       0.70859600
H       -2.16450700      -2.55727400       0.70859200
H        2.16450800      -2.55727800       0.70859800
H        2.16450800       2.55728200       0.70859500
H       -1.31455700       2.14676600       2.22358800
H       -1.31456000      -2.14676800       2.22358700
H        1.31455800      -2.14677300       2.22359000
H        1.31456000       2.14677300       2.22358800
H       -1.28408900       3.82411100       1.60697500
H       -1.28409000      -3.82411200       1.60697200
H        1.28408600      -3.82411600       1.60697400
H        1.28408500       3.82411700       1.60697300
H       -0.00000100       3.07756100      -0.38094700
H        0.00000100      -3.07756000      -0.38094700
