  33
        -39.60109976
 C          0.6780842672        1.2871502844        0.0506511718
 C         -0.6786586019        1.2866246220       -0.0520776663
 C          0.0004741707       -0.8801995711       -0.0000649328
 N          1.0623258095       -0.0402707855        0.0879796693
 N         -1.0619539745       -0.0411058591       -0.0886915734
 C          1.6376189859        2.4226233297        0.1191575418
 C         -1.6390008767        2.4213689183       -0.1214230397
 H          2.3658080407        2.3690676969       -0.6911373885
 H         -2.3679581916        2.3671801740        0.6881135880
 H         -2.1797121450        2.4202340085       -1.0694126133
 H          1.1028515328        3.3651756794        0.0348620929
 H          2.1792781408        2.4218259143        1.0666103811
 H         -1.1050408087        3.3643235599       -0.0365428185
 C          2.5278541280       -1.6547254392        1.1627062547
 C         -2.8650183417       -0.9853088197        1.2428411680
 C         -2.5251115000       -1.6610566071       -1.1582671373
 C          2.8629311308       -0.9905609127       -1.2423128822
 C          2.4242417512       -0.5200606072        0.1462319180
 C         -2.4236482116       -0.5214734263       -0.1471310317
 H          2.2379869149       -1.3043306451        2.1505232965
 H         -3.8933962141       -1.3363305774        1.2181839217
 H         -1.8549783292       -2.4624410684       -0.8617556448
 H          3.8913765717       -1.3414344602       -1.2180702227
 H          1.8565768233       -2.4572053696        0.8717561477
 H         -2.7912210131       -0.1690580909        1.9587966644
 H         -3.5442755420       -2.0358543870       -1.2032908961
 H          2.7876011619       -0.1777454248       -1.9620025758
 H          3.5469341935       -2.0298477181        1.2069382370
 H         -2.2187428912       -1.7945227163        1.5730568625
 H         -2.2324882104       -1.3155921289       -2.1469958235
 H          2.2159358177       -1.8013297314       -1.5672399751
 H          3.0671689237        0.3081233130        0.4653059096
 H         -3.0660943388        0.3050579295       -0.4715163563
