  29
        -44.03619614
 C          0.6744813121        1.8739306826        0.0016019383
 C         -0.6744023752        1.8739453327        0.0011762251
 H          1.3583689831        2.6965020134       -0.0228525471
 H         -1.3583275075        2.6964860889        0.0259127511
 C          2.3925511636        0.0934931061       -0.0138942504
 C          2.6510529403       -1.2078222970       -0.4387572272
 C          3.4470780304        0.9009218021        0.3994448934
 C          3.9456457975       -1.6870725719       -0.4545794995
 H          1.8185690595       -1.8212965638       -0.7445851297
 C          4.7414588860        0.4135057117        0.3732518362
 H          3.2644402597        1.9032780483        0.7564907031
 C          4.9968469218       -0.8772388240       -0.0548776622
 H          4.1370993007       -2.6969044800       -0.7857484725
 H          5.5540914333        1.0481571057        0.6953078518
 H          6.0094388702       -1.2513764378       -0.0731190684
 C         -2.3925342282        0.0936539877        0.0149319430
 C         -3.4460533285        0.9004382848       -0.4022783166
 C         -2.6520472521       -1.2068186410        0.4416894944
 C         -4.7405019996        0.4130988930       -0.3783379788
 H         -3.2624382760        1.9020040157       -0.7609902321
 C         -3.9467289768       -1.6859458057        0.4554372467
 H         -1.8203560163       -1.8198310014        0.7505448430
 C         -4.9969257476       -0.8768917502        0.0514826156
 H         -5.5522885223        1.0470764966       -0.7037741299
 H         -4.1389668759       -2.6952539079        0.7878275299
 H         -6.0095364060       -1.2510220803        0.0678550374
 C         -0.0000074504       -0.2895838902        0.0012958417
 N          1.0714233735        0.5525294284       -0.0054526594
 N         -1.0713561499        0.5525615585        0.0080348910
