  29
        -44.03619614
 C          0.6744813121        1.8739306826        0.0016019383
 C         -0.6744023752        1.8739453327        0.0011762251
 H          1.3583689831        2.6965020134       -0.0228525471
 H         -1.3583275075        2.6964860889        0.0259127511
 C          2.3925511636        0.0934931061       -0.0138942504
 C          2.6510529403       -1.2078222970       -0.4387572272
 C          3.4470780304        0.9009218021        0.3994448934
 C          3.9456457975       -1.6870725719       -0.4545794995
 H          1.8185690595       -1.8212965638       -0.7445851297
 C          4.7414588860        0.4135057117        0.3732518362
 H          3.2644402597        1.9032780483        0.7564907031
 C          4.9968469218       -0.8772388240       -0.0548776622
 H          4.1370993007       -2.6969044800       -0.7857484725
 H          5.5540914333        1.0481571057        0.6953078518
 H          6.0094388702       -1.2513764378       -0.0731190684
 C         -2.3925342282        0.0936539877        0.0149319430
 C         -3.4460533285        0.9004382848       -0.4022783166
 C         -2.6520472521       -1.2068186410        0.4416894944
 C         -4.7405019996        0.4130988930       -0.3783379788
 H         -3.2624382760        1.9020040157       -0.7609902321
 C         -3.9467289768       -1.6859458057        0.4554372467
 H         -1.8203560163       -1.8198310014        0.7505448430
 C         -4.9969257476       -0.8768917502        0.0514826156
 H         -5.5522885223        1.0470764966       -0.7037741299
 H         -4.1389668759       -2.6952539079        0.7878275299
 H         -6.0095364060       -1.2510220803        0.0678550374
 C         -0.0000074504       -0.2895838902        0.0012958417
 N          1.0714233735        0.5525294284       -0.0054526594
 N         -1.0713561499        0.5525615585        0.0080348910
  29
        -44.03600083
 C          0.6809119619        1.8618498750       -0.2378343161
 C         -0.6677240682        1.8672969442       -0.2409778527
 H          1.3695427005        2.6704675769       -0.3686588062
 H         -1.3404510401        2.6900720437       -0.3607957179
 C          2.3918476564        0.0904257464       -0.0144746259
 C          2.6569002915       -1.2433174686       -0.3156869061
 C          3.4382349387        0.9331541262        0.3451975863
 C          3.9513576256       -1.7206390331       -0.2641140235
 H          1.8303621270       -1.8831501611       -0.5806979461
 C          4.7324975994        0.4467453192        0.3879961084
 H          3.2473191946        1.9628402049        0.6080193231
 C          4.9949517896       -0.8769222495        0.0816178260
 H          4.1487860274       -2.7556854864       -0.5002266162
 H          5.5392909674        1.1080651521        0.6682370657
 H          6.0074632680       -1.2500930219        0.1159040442
 C         -2.3936353622        0.1022713026       -0.0041902927
 C         -3.4754558847        0.9767597388        0.0229239414
 C         -2.6284748293       -1.2712726579        0.0418230877
 C         -4.7657447331        0.4815578127        0.0888877243
 H         -3.3262003203        2.0451339480       -0.0008266166
 C         -3.9189315668       -1.7552103959        0.1115962377
 H         -1.7785382371       -1.9343304106        0.0261291108
 C         -4.9948229924       -0.8818124395        0.1327968287
 H         -5.5968641603        1.1713722623        0.1080501405
 H         -4.0872823683       -2.8212546430        0.1483608867
 H         -6.0042517018       -1.2611221640        0.1850501323
 C         -0.0017254971       -0.2809245411        0.0308678834
 N          1.0719644833        0.5491953627       -0.0739339953
 N         -1.0727851020        0.5584278370       -0.0722752980
  29
        -44.03030810
 C          0.6274617738        0.9906089512       -1.5559386272
 C         -0.7212799398        0.9579813984       -1.5148001726
 H          1.2804697564        1.4245433780       -2.2839701961
 H         -1.4576606020        1.3713626935       -2.1737954001
 C          2.4069326088        0.0723475115       -0.1049812272
 C          3.4300062401        0.8763933956       -0.5972211942
 C          2.7144763498       -0.9699245352        0.7670285217
 C          4.7407489399        0.6286817120       -0.2309868365
 H          3.2099001916        1.7050070903       -1.2534394203
 C          4.0250572229       -1.2045691233        1.1316662034
 H          1.9056640146       -1.5728401808        1.1481644690
 C          5.0445060022       -0.4110025535        0.6299283218
 H          5.5282342536        1.2581704046       -0.6192582816
 H          4.2541311466       -2.0148084269        1.8079028862
 H          6.0697262519       -0.5992521999        0.9115038239
 C         -2.4001554334        0.0001799267       -0.0016941021
 C         -3.0535771094        0.8950923139        0.8348055033
 C         -3.0636484037       -1.1242332497       -0.4740795079
 C         -4.3686539596        0.6630579844        1.1955055890
 H         -2.5249644710        1.7631352330        1.2002121047
 C         -4.3785897602       -1.3498051778       -0.1088964014
 H         -2.5429750088       -1.8157227537       -1.1200870818
 C         -5.0321812343       -0.4569363585        0.7236124017
 H         -4.8763503419        1.3587942290        1.8469677308
 H         -4.8939655693       -2.2251696525       -0.4753759090
 H         -6.0589798590       -0.6350505779        1.0064119480
 C          0.0273544621       -0.1886837143        0.2898438797
 N          1.0712262832        0.2882256668       -0.4560484018
 N         -1.0622207661        0.2428240720       -0.3872286712
