19
	Energy:      16.2485845
N         -1.89050        0.23292        0.17892
C         -0.59135       -0.41429        0.35884
N          0.05145       -0.63348       -0.93739
C         -2.93503       -0.79265        0.07120
C          1.12247       -1.62114       -0.76758
H         -2.97641       -1.42613        0.98580
H         -2.74274       -1.44303       -0.80971
H         -3.92629       -0.31258       -0.08069
H          1.88338       -1.27223       -0.03306
H          1.62361       -1.81426       -1.74150
H          0.69733       -2.58645       -0.41597
C         -2.14358        1.10807        1.32745
H         -1.35230        1.88686        1.39076
H         -2.16091        0.53226        2.28028
H         -3.11580        1.63200        1.20141
C          0.60564        0.63601       -1.42808
H          1.10668        0.48270       -2.40813
H          1.33974        1.06236       -0.70768
H         -0.20981        1.37416       -1.58880
