  19
        -22.60917602
 N         -1.1705029715       -0.1011749445       -0.0299037381
 C          0.0000146199       -0.7309727205       -0.0000828217
 N          1.1705147425       -0.1011737365        0.0299243621
 C         -2.3342427309       -0.9535076194        0.0899186052
 C          2.3342751273       -0.9534677647       -0.0898626486
 H         -2.0030454444       -1.9855368620        0.1708716538
 H         -2.9836548628       -0.8521020370       -0.7855305545
 H         -2.9137189908       -0.6923357157        0.9810792161
 H          2.0030167845       -1.9854728510       -0.1713435208
 H          2.9834911096       -0.8524074324        0.7857839215
 H          2.9139770234       -0.6919940676       -0.9808333947
 C         -1.5290582524        1.3114478306       -0.1190600099
 H         -2.5050667872        1.3932572894       -0.6010272714
 H         -0.8121237214        1.8569038715       -0.7262650900
 H         -1.6012067113        1.7753665816        0.8705377204
 C          1.5290120011        1.3114666121        0.1190655306
 H          0.8121884945        1.8567766301        0.7267177049
 H          1.6006533223        1.7754686414       -0.8706284194
 H          2.5053170849        1.3932522430        0.6006057821
