  21
        -26.93415923
 N         -1.0632597706       -0.6664500602        0.0000534601
 C         -0.0000418970       -1.5086083792       -0.0000553623
 N          1.0632079139       -0.6664930087       -0.0000727570
 C          0.6799711772        0.6617135658       -0.0000614802
 C         -0.6799753346        0.6617373736       -0.0000010022
 C         -2.4238368478       -1.1149794153       -0.0001600455
 C          2.4237822238       -1.1150157942        0.0002393082
 H         -2.4165302021       -2.2032283275        0.0009489188
 H         -2.9534537758       -0.7601763509       -0.8884870721
 H         -2.9543947202       -0.7582662377        0.8868193631
 H          2.4165183144       -2.2032928225        0.0005083808
 H          2.9537201751       -0.7590354242        0.8879120889
 H          2.9540028721       -0.7593978613       -0.8873686783
 C          1.6621523687        1.7772629411       -0.0002429288
 C         -1.6620225023        1.7774024308        0.0002661033
 H         -2.3029633900        1.7296966589       -0.8812300584
 H         -1.1443900250        2.7330700735       -0.0013454418
 H         -2.3005602066        1.7314033343        0.8836216538
 H          2.3011428898        1.7307717606       -0.8832194416
 H          2.3026002798        1.7298394556        0.8816135364
 H          1.1446806063        2.7330014667        0.0006785258
  21
        -26.93291318
 N         -1.0613514624       -0.6686015794        0.0000587313
 C          0.0021920706       -1.5102924756        0.0001294458
 N          1.0681984700       -0.6696083295       -0.0002734824
 C          0.6852377826        0.6580568507       -0.0008651228
 C         -0.6753654906        0.6567804116       -0.0003212717
 C         -2.4225035819       -1.1152193922        0.0000773053
 C          2.4219352976       -1.1423757012        0.0001791340
 H         -2.9531369051       -0.7534145268        0.8849138644
 H         -2.4173757434       -2.2034542535        0.0055922377
 H         -2.9503027970       -0.7627359367       -0.8902807084
 H          2.9594480751       -0.7998182559        0.8886626649
 H          2.9584421482       -0.8051169151       -0.8910074057
 H          2.3887732787       -2.2302663737        0.0031016784
 C          1.6306855475        1.8095946900        0.0004474351
 C         -1.6436204844        1.7845186247        0.0001863470
 H         -2.2892419268        1.7427403590       -0.8782369454
 H         -1.1088143271        2.7304900344       -0.0064632242
 H         -2.2793848196        1.7503169373        0.8861401316
 H          1.5016427008        2.4109302862        0.9012035408
 H          1.4511477907        2.4526338142       -0.8616538817
 H          2.6607969190        1.4667988495       -0.0370007089
  21
        -26.93194423
 N         -1.0601678316       -0.6647973822       -0.0002226214
 C          0.0019843095       -1.5059579894        0.0002861596
 N          1.0681000027       -0.6649241433        0.0005807068
 C          0.6842115721        0.6634315580        0.0000898769
 C         -0.6765034581        0.6626778416       -0.0003736379
 C         -2.4204940313       -1.1141502369       -0.0004839301
 C          2.4229618006       -1.1442969545       -0.0000188599
 H         -2.9505820877       -0.7598045823        0.8877000784
 H         -2.4122647988       -2.2024174478       -0.0019222968
 H         -2.9509236023       -0.7575726833       -0.8875721816
 H          2.5948226315       -1.7781129933        0.8721344075
 H          3.1223672548       -0.3115876991        0.0226077244
 H          2.6090856694       -1.7416725552       -0.8949909173
 C          1.6452602608        1.7993224819       -0.0006241150
 C         -1.6609246161        1.7763111936        0.0007878759
 H         -2.3074241300        1.7224610329       -0.8762768423
 H         -1.1472609029        2.7340223648       -0.0086237423
 H         -2.2936858681        1.7326244713        0.8884962394
 H          2.2791754441        1.7774761842        0.8871368060
 H          1.1015970467        2.7404695009       -0.0068999593
 H          2.2866192437        1.7696477360       -0.8827540215
  21
        -26.93002248
 N         -1.0563255334       -0.6669553502       -0.0001855550
 C          0.0059890899       -1.5071018582       -0.0001589944
 N          1.0760177503       -0.6681428923        0.0000288757
 C          0.6920263218        0.6605202990       -0.0002087006
 C         -0.6697052252        0.6572221368        0.0000448598
 C         -2.4173093074       -1.1139148791       -0.0005455751
 C          2.4176508964       -1.1842308776        0.0008565979
 H         -2.9466786139       -0.7566513049        0.8868758106
 H         -2.4118259762       -2.2021523346       -0.0005546588
 H         -2.9461882566       -0.7566839893       -0.8882808083
 H          3.1490517239       -0.3791767683        0.0125663546
 H          2.5814210334       -1.7959009008       -0.8886037393
 H          2.5723253004       -1.8131915344        0.8795637862
 C          1.6014411894        1.8418103930       -0.0010247743
 C         -1.6385880363        1.7845737567        0.0010754343
 H         -2.2810344925        1.7453812465       -0.8798719369
 H         -1.1057102262        2.7315271454       -0.0003181217
 H         -2.2777551815        1.7463867193        0.8844560094
 H          2.6471819006        1.5483828687       -0.0147759288
 H          1.4330134068        2.4507603296        0.8878265288
 H          1.4137728804        2.4632068430       -0.8771688782
