21
	Energy:      24.1754912
N         -2.29506       -0.13577        1.09123
C         -1.06627       -0.91786        0.85456
N         -0.32532       -0.42520       -0.32299
H         -1.31573       -1.99819        0.75187
C         -3.30700       -0.37646        0.04934
C          0.86311       -1.26123       -0.53981
H         -3.60276       -1.44719        0.05393
H         -2.92989       -0.12422       -0.96399
H         -4.22116        0.21952        0.25757
H          1.53512       -1.24647        0.34777
H          1.42756       -0.90267       -1.42752
H          0.56034       -2.31049       -0.74562
C         -1.97491        1.29363        1.26941
C          0.07939        0.97473       -0.10203
C         -1.16100        1.84440        0.09231
H         -1.37624        1.40673        2.20065
H         -2.90307        1.89019        1.40680
H         -0.86754        2.89774        0.28959
H         -1.77060        1.82850       -0.83541
H          0.64230        1.35721       -0.98196
H          0.73531        1.05551        0.79619
