  21
        -25.03412202
 N         -1.1605687544       -0.3555723772       -0.0359951352
 C         -0.0000025737       -0.9544556974        0.0548992308
 N          1.1605890293       -0.3556222642       -0.0359884865
 H         -0.0000070214       -2.0261513060        0.2080440794
 C         -2.4075785074       -1.0762447245        0.0428014871
 C          2.4076467769       -1.0761357079        0.0431501771
 H         -2.2299538361       -2.1474512813        0.0913709573
 H         -3.0130889362       -0.8575562227       -0.8375446361
 H         -2.9635355139       -0.7689796455        0.9301512011
 H          2.2300934714       -2.1473844759        0.0923791470
 H          2.9635643261       -0.7683155423        0.9303547489
 H          3.0130378883       -0.8579498746       -0.8373865000
 C         -1.2426326233        1.0831639707       -0.2193117142
 C          1.2424305296        1.0830501093       -0.2201129265
 C          0.0001340002        1.7403167852        0.3688272499
 H         -2.1415336356        1.4460071957        0.2814640474
 H         -1.3317501812        1.3077304437       -1.2867423980
 H          0.0005062389        1.6153106357        1.4524942052
 H          0.0001477429        2.8050290140        0.1466533840
 H          1.3305126601        1.3070748777       -1.2877411993
 H          2.1417536104        1.4461995477        0.2796522397
