  34
        -39.84732126
 N         -1.0880906462        0.2089778224       -0.0004803348
 C         -0.0000101891       -0.5556261144       -0.0004951475
 N          1.0880794845        0.2089634969       -0.0002618944
 H          0.0000007923       -1.6249709104       -0.0007394583
 C          0.6792933426        1.5096940941       -0.0001088196
 C         -0.6792980772        1.5096894890       -0.0001677737
 C         -2.4940728546       -0.2232831131        0.0000604873
 C          2.4940648855       -0.2232866724        0.0000028485
 C         -3.1588068224        0.3378264037       -1.2595112900
 C         -3.1551570038        0.3304208392        1.2648325567
 C         -2.5727562160       -1.7478667778       -0.0044388006
 C          3.1568998430        0.3330941950       -1.2626552185
 C          2.5728233181       -1.7478741244        0.0013470576
 C          3.1570210308        0.3352078885        1.2616795042
 H          1.3550298227        2.3380730905        0.0000306494
 H         -1.3548992470        2.3381832447        0.0000211447
 H         -2.6486626045       -0.0159276619       -2.1523985650
 H         -3.1563898221        1.4239257418       -1.2628795563
 H         -4.1913399825        0.0043234292       -1.3026985715
 H         -2.1110049798       -2.1710879113        0.8840182767
 H         -2.1116627583       -2.1656442828       -0.8958183939
 H         -3.6179576664       -2.0439837855       -0.0048771523
 H          2.1118773034       -2.1691166330       -0.8884639989
 H          2.1108850490       -2.1675856639        0.8913727520
 H          3.6180152101       -2.0440382081        0.0021798733
 H         -2.6437112219       -0.0302266202        2.1542142784
 H         -4.1881918333       -0.0015106053        1.3080198334
 H         -3.1505785832        1.4164806791        1.2754448333
 H          4.1896981919        0.0003736100       -1.3055729056
 H          3.1533481627        1.4191767125       -1.2705424633
 H          2.6460996698       -0.0248699334       -2.1534897484
 H          4.1893962414        0.0013488851        1.3058501540
 H          2.6453673722       -0.0200853189        2.1530952384
 H          3.1548210172        1.4213074706        1.2670489702
  34
        -39.84687122
 N         -1.0939199544        0.2485815615        0.1153023129
 C         -0.0221885481       -0.4895759499       -0.1683786995
 N          1.0825928213        0.2150216436        0.0489283525
 H         -0.0531152232       -1.4998270227       -0.5188731745
 C          0.7035721349        1.4484993466        0.4875998043
 C         -0.6558761701        1.4694097434        0.5291449100
 C         -2.4845066189       -0.2194498840       -0.0133018878
 C          2.4775222269       -0.2125890829       -0.1373383350
 C         -2.7226819411       -0.6033186702       -1.4761832438
 C         -3.4436778134        0.8955736925        0.3939413142
 C         -2.6663214768       -1.4268448957        0.9103696363
 C          3.1186947920        0.7159814637       -1.1716727213
 C          2.5199390577       -1.6553334075       -0.6344236544
 C          3.1869092796       -0.1045361039        1.2147551228
 H          1.3974457109        2.2218446608        0.7391424457
 H         -1.3059354528        2.2649928383        0.8224354415
 H         -2.5212276555        0.2412208641       -2.1310361232
 H         -3.7602875182       -0.8950578458       -1.6087572951
 H         -2.0985469636       -1.4392797279       -1.7785137513
 H         -2.4270695535       -1.1621736429        1.9376824054
 H         -2.0405567196       -2.2614545261        0.6076135885
 H         -3.7010994190       -1.7546244649        0.8769705066
 H          2.0710858159       -2.3352640430        0.0853316350
 H          3.5573754451       -1.9505471010       -0.7636108869
 H          2.0262557302       -1.7569378775       -1.5976228500
 H         -3.3339697991        1.7652952743       -0.2488479262
 H         -3.2960887562        1.1843725759        1.4314490868
 H         -4.4638251311        0.5361913550        0.2927524579
 H          4.1422508735        0.4024257688       -1.3539414733
 H          3.1391260205        1.7454363584       -0.8260266589
 H          2.5762942594        0.6737454837       -2.1133101180
 H          2.6913399128       -0.7241952683        1.9584463353
 H          3.2102495219        0.9204495801        1.5731869758
 H          4.2120386067       -0.4482096439        1.1136380749
  34
        -39.84678532
 N         -1.0934228839        0.2670119312       -0.0386538224
 C         -0.0160538545       -0.5145917224       -0.0830993167
 N          1.0807830556        0.2178443505        0.0750805347
 H         -0.0369879237       -1.5743989057       -0.2264660329
 C          0.6903173758        1.5142864391        0.2315255857
 C         -0.6676177745        1.5447975129        0.1618570755
 C         -2.4819087181       -0.2126596577       -0.1441114453
 C          2.4784241133       -0.2402622395        0.0863997781
 C         -3.4237893414        0.9773101084       -0.3104571120
 C         -2.8110650339       -0.9712415368        1.1445975620
 C         -2.5884194464       -1.1312804667       -1.3640243979
 C          2.5364677680       -1.7469835312       -0.1521386005
 C          3.0712229123        0.0965270470        1.4569230239
 C          3.2233069285        0.4939160720       -1.0313704542
 H          1.3759811976        2.3210722728        0.3789841408
 H         -1.3250338223        2.3833778679        0.2400883866
 H         -4.4349818350        0.6089666689       -0.4581467346
 H         -3.1542003547        1.5715728989       -1.1800738713
 H         -3.4309450126        1.6066438179        0.5754793947
 H         -3.6296433288       -1.3944902459       -1.5254573586
 H         -2.0339548421       -2.0547020957       -1.2260595995
 H         -2.2246414805       -0.6278153938       -2.2565477349
 H          2.5085971657       -0.3923524052        2.2488446559
 H          3.0719995708        1.1673909336        1.6390262184
 H          4.0982061699       -0.2532231653        1.5026999312
 H         -3.8394859965       -1.3180487544        1.1088079051
 H         -2.7000954027       -0.3226901093        2.0104864730
 H         -2.1648026359       -1.8359433098        1.2698316947
 H          3.5761454123       -2.0619467632       -0.1490208295
 H          2.1147293456       -2.0106777852       -1.1188225556
 H          2.0250054912       -2.2932092802        0.6363763632
 H          2.7566771367        0.3005883223       -1.9944829212
 H          4.2496862782        0.1418114607       -1.0736814041
 H          3.2436853373        1.5664391079       -0.8616295230
  34
        -39.84670519
 N         -1.0922574828        0.2323156638       -0.1142518543
 C         -0.0141108940       -0.5231728874        0.0844516707
 N          1.0840775463        0.2136349072       -0.0439500623
 H         -0.0339469485       -1.5683970687        0.3101347962
 C          0.6936488075        1.4879921877       -0.3296902449
 C         -0.6653406764        1.5002973413       -0.3707361308
 C         -2.4872197712       -0.2226296703        0.0092146466
 C          2.4827542150       -0.2194052193        0.0956962354
 C         -3.4002726635        0.7324471120       -0.7580453973
 C         -2.8409152251       -0.2190318002        1.4992501350
 C         -2.6057579247       -1.6322583974       -0.5740041804
 C          3.2038252813        0.0815716533       -1.2205189718
 C          2.5396630533       -1.7163241263        0.3897974544
 C          3.1016000801        0.5660145914        1.2548574486
 H          1.3803154762        2.2925656489       -0.4843724612
 H         -1.3245801305        2.3181116402       -0.5661471858
 H         -3.4490226842        1.7085166905       -0.2834965534
 H         -4.4078695246        0.3270308966       -0.7709676737
 H         -3.0693246428        0.8446537163       -1.7876272992
 H         -2.1026739306       -2.3706734312        0.0432582432
 H         -2.1998462484       -1.6683626214       -1.5820269047
 H         -3.6542543799       -1.9112058082       -0.6231066647
 H          2.0453965090       -1.9551006908        1.3280985724
 H          3.5799825153       -2.0156089966        0.4808928159
 H          2.0993412295       -2.2951178449       -0.4182507963
 H         -2.7302208542        0.7780199369        1.9190942043
 H         -2.2039592713       -0.9042356119        2.0530917371
 H         -3.8728301224       -0.5312622261        1.6286917907
 H          4.2310648523       -0.2648045026       -1.1570953839
 H          3.2217309619        1.1465132460       -1.4328625922
 H          2.7213242605       -0.4325431753       -2.0484624866
 H          2.5539892018        0.3844232024        2.1766766034
 H          3.1060267857        1.6337746501        1.0557404907
 H          4.1291961283        0.2466790455        1.4006573764
  34
        -39.84640902
 N         -1.0875282906        0.1521202008       -0.2470266325
 C         -0.0036680522       -0.2501373818        0.4110469464
 N          1.0917929562        0.1398519211       -0.2351007378
 H         -0.0118304335       -0.8056920194        1.3257464281
 C          0.6929151014        0.8155982808       -1.3470559218
 C         -0.6689279306        0.8232238724       -1.3545354197
 C         -2.4708792693       -0.1078575126        0.1864793480
 C          2.4673082638       -0.1349515485        0.2139033129
 C         -3.4483173029        0.5122510466       -0.8080448844
 C         -2.6616716639        0.5241209209        1.5678882821
 C         -2.6733814273       -1.6244644985        0.2405509541
 C          2.6510105046        0.5001713817        1.5948293047
 C          3.4624811892        0.4695190139       -0.7726223429
 C          2.6512845100       -1.6536084402        0.2759088274
 H          1.3683382874        1.2440496360       -2.0553956977
 H         -1.3317178996        1.2591749764       -2.0701906026
 H         -3.3224943135        1.5904525976       -0.8653477654
 H         -4.4628259794        0.3149484223       -0.4734881009
 H         -3.3355926258        0.0759817246       -1.7972541884
 H         -2.0316848040       -2.0885699763        0.9839732641
 H         -2.4691361480       -2.0726778336       -0.7289879904
 H         -3.7040353928       -1.8421562854        0.5045075747
 H          3.3538914299        0.0317371950       -1.7616310539
 H          4.4709835571        0.2601874700       -0.4273794333
 H          3.3512341479        1.5490740216       -0.8343234555
 H         -2.4430335268        1.5889025372        1.5351390143
 H         -2.0251726777        0.0576892960        2.3142724295
 H         -3.6934666770        0.3993796828        1.8827875882
 H          3.6771327665        0.3620069428        1.9223556649
 H          1.9990616902        0.0461657458        2.3355046435
 H          2.4480832412        1.5678034662        1.5550896997
 H          2.4518281646       -2.1032350356       -0.6939774973
 H          1.9966389864       -2.1072803749        1.0144552961
 H          3.6765319519       -1.8823226358        0.5513688288
  34
        -39.84632759
 N         -1.0896370820       -0.2789081496       -0.0210489672
 C         -0.0002616489        0.4838630126        0.0118720997
 N          1.0894914065       -0.2790146353        0.0098406246
 H         -0.0005951171        1.5536928985        0.0364504158
 C          0.6810646174       -1.5768469426       -0.0275365623
 C         -0.6805646618       -1.5768391574       -0.0442939476
 C         -2.4701950476        0.2335150266        0.0018545855
 C          2.4701390355        0.2336468010        0.0087907512
 C         -2.6229096042        1.2588083931       -1.1246681651
 C         -2.7056820908        0.8794480224        1.3700088481
 C         -3.4498987771       -0.9174701101       -0.2104397086
 C          2.7127580704        0.9163458216       -1.3401349722
 C          3.4482580416       -0.9231842840        0.1955520186
 C          2.6174329040        1.2282018265        1.1632353830
 H          1.3506045238       -2.4093738710       -0.0383639447
 H         -1.3496239696       -2.4093571586       -0.0721413759
 H         -3.6601554427        1.5747803210       -1.1853783206
 H         -2.3453151623        0.8218430409       -2.0809370334
 H         -2.0175245276        2.1435033658       -0.9511412453
 H         -3.4002944039       -1.6365225678        0.6030138877
 H         -3.2660931650       -1.4202779937       -1.1566495986
 H         -4.4603906204       -0.5195831706       -0.2356798994
 H          3.4086285083       -1.6162949676       -0.6406056754
 H          3.2537422487       -1.4556854795        1.1232076518
 H          4.4581749054       -0.5261034301        0.2447619809
 H         -2.0377986350        1.7210278997        1.5321735055
 H         -2.5554520951        0.1545981588        2.1667234384
 H         -3.7276357070        1.2419448011        1.4286213716
 H          3.7341640710        1.2825995969       -1.3826209137
 H          2.0434497634        1.7602679948       -1.4835023950
 H          2.5690545905        0.2128763228       -2.1569735275
 H          2.3290028546        0.7678327083        2.1052001655
 H          2.0187420921        2.1206977511        1.0074883706
 H          3.6556613748        1.5369898578        1.2415831108
  34
        -39.84624731
 N         -1.0899196845        0.2738129843        0.0719550190
 C         -0.0094473678       -0.4856590204       -0.0913852498
 N          1.0858228816        0.2671927642       -0.0483798378
 H         -0.0219761794       -1.5453190271       -0.2385465135
 C          0.6907219857        1.5535690976        0.1601254022
 C         -0.6685921653        1.5581276119        0.2323160572
 C         -2.4727121474       -0.2332539042        0.0780646070
 C          2.4697068018       -0.2277143140       -0.1355783290
 C         -2.7213845725       -0.9568668424       -1.2479243874
 C         -3.4482785559        0.9312766849        0.2240362473
 C         -2.6188005360       -1.1901283288        1.2643495942
 C          3.3843070099        0.9093555355       -0.5889566797
 C          2.5268157463       -1.3732323405       -1.1483129041
 C          2.8720997628       -0.7148536582        1.2594215022
 H          1.3692188216        2.3749829048        0.2404884112
 H         -1.3287476608        2.3844663820        0.3833853685
 H         -2.5338203122       -0.2918778585       -2.0877381803
 H         -3.7578874306       -1.2777082186       -1.2949186204
 H         -2.0944760227       -1.8379011096       -1.3499009730
 H         -2.3802101203       -0.6833030979        2.1964900168
 H         -1.9723616913       -2.0569958164        1.1607571480
 H         -3.6449585693       -1.5408196585        1.3218375895
 H          2.0812327966       -1.0753622603       -2.0943675672
 H          2.0284110012       -2.2651649201       -0.7800978896
 H          3.5645516364       -1.6352513984       -1.3327392096
 H         -3.3497002282        1.6337601809       -0.5997078362
 H         -3.3068346489        1.4503379258        1.1685047939
 H         -4.4630370697        0.5438180775        0.2095335632
 H          3.4795916088        1.6764171153        0.1743712300
 H          3.0206960417        1.3572000636       -1.5105687331
 H          4.3780246053        0.5130265629       -0.7764747497
 H          3.8951610544       -1.0780613845        1.2360719336
 H          2.2280568909       -1.5260561962        1.5898779474
 H          2.8131356766        0.0949835758        1.9827614928
  34
        -39.84613410
 N         -1.0890929983       -0.2672697403        0.0246031036
 C          0.0002815196        0.4959216624        0.0065745259
 N          1.0892752307       -0.2669516696       -0.0340171972
 H          0.0001772945        1.5655831331        0.0220523355
 C          0.6801586423       -1.5656099062       -0.0394552439
 C         -0.6806186232       -1.5657097690       -0.0084727186
 C         -2.4743570730        0.2318133432        0.0103420359
 C          2.4744458382        0.2316880605       -0.0031603684
 C         -2.7938435480        0.6643631685       -1.4234915917
 C         -2.5827028998        1.4159297712        0.9739574607
 C         -3.4205691481       -0.8824846561        0.4529202828
 C          2.5871693994        1.4346071637       -0.9426622624
 C          3.4233149807       -0.8732954669       -0.4628470960
 C          2.7865920380        0.6355494941        1.4406401339
 H          1.3500557917       -2.3974855075       -0.0668047582
 H         -1.3506601646       -2.3979180534       -0.0056739620
 H         -2.6969041662       -0.1742243228       -2.1091527284
 H         -2.1297326166        1.4609309629       -1.7493611551
 H         -3.8153543415        1.0293819636       -1.4735702778
 H         -3.4573294253       -1.6886927754       -0.2745389396
 H         -4.4251849231       -0.4793402248        0.5427709318
 H         -3.1296324506       -1.2789827247        1.4226038675
 H          3.1387507780       -1.2495387308       -1.4424315895
 H          3.4554428446       -1.6943578150        0.2480705919
 H          4.4284245571       -0.4683498996       -0.5379877816
 H         -2.2021652268        1.1489648397        1.9569601133
 H         -3.6267500805        1.6954833352        1.0811023615
 H         -2.0488379718        2.2877226965        0.6072357505
 H          3.6311003210        1.7190866294       -1.0360553669
 H          2.0475940890        2.2974889696       -0.5638202762
 H          2.2151250116        1.1856155614       -1.9335188764
 H          2.6821521545       -0.2157918907        2.1092385960
 H          2.1235836795        1.4282771247        1.7778111991
 H          3.8091481481        0.9954235752        1.5041161902
