16
	Energy:      42.4391967
N         -1.97033       -0.46383        0.34606
C         -1.00290       -1.45683       -0.03701
N          0.19647       -0.73390       -0.36216
H         -1.15040       -2.55654       -0.07450
C         -0.05694        0.64174       -0.17631
C         -1.35925        0.80352        0.24931
C         -3.32927       -0.71263        0.75819
C          1.43843       -1.32014       -0.80115
H         -3.54489       -1.80203        0.74311
H         -4.02875       -0.19738        0.06711
H         -3.48248       -0.32934        1.78870
H          1.81791       -2.01429       -0.02249
H          2.19910       -0.53116       -0.98203
H          1.27180       -1.88237       -1.74365
H          0.65819        1.43676       -0.34228
H         -1.84034        1.74635        0.47423
