  16
        -20.83959755
 N         -1.0848099566       -0.1063130977        0.0003522225
 C          0.0000010748       -0.8752189775        0.0002609794
 N          1.0848128695       -0.1063129173        0.0000341961
 H          0.0000160877       -1.9481895442        0.0003898763
 C          0.6810896934        1.1938570179       -0.0000710949
 C         -0.6810929283        1.1938547923        0.0000534221
 C         -2.4518310620       -0.5521345858       -0.0003186588
 C          2.4518281161       -0.5521285914       -0.0001860798
 H         -2.9694015822       -0.1680229366        0.8791584979
 H         -2.4861655814       -1.6389310473        0.0103709452
 H         -2.9629807277       -0.1858628609       -0.8911943831
 H          2.9653484249       -0.1792362845       -0.8868590009
 H          2.4861646854       -1.6389481529        0.0025609250
 H          2.9670632269       -0.1746492519        0.8835153036
 H          1.3713529968        2.0119447402       -0.0001963196
 H         -1.3713771628        2.0119265063       -0.0000004222
  16
        -20.83927297
 N         -1.0865112666       -0.0992523607       -0.0034616799
 C         -0.0022550487       -0.8720010501       -0.0017830707
 N          1.0836918437       -0.1058004788        0.0006978719
 H         -0.0080377924       -1.9450036663       -0.0030388843
 C          0.6837634524        1.1949726789        0.0011766743
 C         -0.6792848877        1.1979795796       -0.0010830496
 C         -2.4489736863       -0.5620878327        0.0030648709
 C          2.4493868684       -0.5553302758        0.0005533129
 H         -2.6705656587       -1.0724851720        0.9410856402
 H         -2.6156386923       -1.2558102114       -0.8206217420
 H         -3.1198147469        0.2867660223       -0.1046596924
 H          2.9674363530       -0.1730104616        0.8803885780
 H          2.9619849537       -0.1896875291       -0.8895776610
 H          2.4808873289       -1.6420856778        0.0105379045
 H          1.3756911759        2.0115759241        0.0024577995
 H         -1.3641827952        2.0204963483       -0.0011480322
  16
        -20.83892745
 N         -1.0853814304       -0.0987728032       -0.0025455825
 C         -0.0000037041       -0.8688101700        0.0000182050
 N          1.0853844954       -0.0987813893        0.0026113852
 H          0.0000221496       -1.9418536002        0.0001109381
 C          0.6820054906        1.1990201186        0.0013369926
 C         -0.6820153366        1.1990491616       -0.0013446822
 C         -2.4466138777       -0.5651537691        0.0015091907
 C          2.4466108151       -0.5651366072       -0.0015605721
 H         -2.6580457723       -1.1063009726        0.9242366952
 H         -2.6194634886       -1.2323170016       -0.8428666947
 H         -3.1204922260        0.2849785185       -0.0730188185
 H          2.6591029846       -1.1032658886       -0.9259005866
 H          2.6184383840       -1.2351545906        0.8406986438
 H          3.1204466482        0.2847177730        0.0763046294
 H          1.3686803974        2.0199984978        0.0021421529
 H         -1.3685336996        2.0201376797       -0.0021344186
