  22
        -27.11370929
 N         -1.0843933858       -0.6465027579        0.0000342321
 C          0.0000056907       -1.4168456662        0.0000244332
 N          1.0843993794       -0.6465031921        0.0000331551
 C          0.6866821752        0.6672850318        0.0000503959
 C         -0.6866736239        0.6672829881        0.0000260812
 C         -2.4486537142       -1.0985131637       -0.0001959976
 C          2.4486452271       -1.0985143885        0.0001105339
 H         -2.9676600099       -0.7284338826        0.8847539284
 H         -2.4751553640       -2.1855099659       -0.0002701355
 H         -2.9673796200       -0.7282968511       -0.8852530791
 H          2.9671650424       -0.7296615358       -0.8856401574
 H          2.4751433038       -2.1854978789        0.0016254877
 H          2.9678594612       -0.7270891885        0.8843571743
 C          1.6594114760        1.7825363035       -0.0002462046
 C         -1.6594142717        1.7825355236        0.0002098301
 H         -1.1421079377        2.7361465383        0.0004816894
 H         -2.2987124964        1.7366495415        0.8810423413
 H         -2.2985291112        1.7371350988       -0.8808193672
 H          1.1421206340        2.7361628207       -0.0012816263
 H          2.2990624562        1.7361988187       -0.8807381336
 H          2.2980780464        1.7376497936        0.8810485462
 H         -0.0000029626       -2.4889571639        0.0000062515
  22
        -27.11259736
 N         -1.0820359042       -0.6488985018        0.0004984796
 C          0.0027442463       -1.4186414411        0.0002819584
 N          1.0897465289       -0.6496026705        0.0005367176
 C          0.6922718105        0.6631665026        0.0006893935
 C         -0.6818178931        0.6621922891        0.0007084323
 C         -2.4469065015       -1.0988678488       -0.0013723860
 C          2.4473264895       -1.1279546857        0.0000970126
 H         -2.4755706443       -2.1857729056        0.0082583390
 H         -2.9611066968       -0.7354500434       -0.8919071693
 H         -2.9686171178       -0.7194471717        0.8779390545
 H          2.4472543020       -2.2154240742        0.0062406189
 H          2.9751648522       -0.7703037549        0.8848306327
 H          2.9713005072       -0.7797773283       -0.8906973815
 C          1.6244642195        1.8163706010       -0.0014432973
 C         -1.6390510426        1.7904793215        0.0007285523
 H         -2.2780928325        1.7557134050       -0.8807698791
 H         -1.1028977480        2.7338284540        0.0022751606
 H         -2.2807066810        1.7537635676        0.8801733165
 H          1.4769488574        2.4202733506       -0.8956134240
 H          2.6587658892        1.4911966117        0.0263548675
 H          1.4394232558        2.4532854560        0.8619736399
 H          0.0025236852       -2.4906787856        0.0002543843
  22
        -27.11236844
 N         -1.0802628059       -0.6448086142       -0.0001143124
 C          0.0045286693       -1.4129092855        0.0003538237
 N          1.0900754997       -0.6415434116        0.0007957092
 C          0.6908001685        0.6713832185        0.0004888131
 C         -0.6834915418        0.6686437779       -0.0000598859
 C         -2.4437843264       -1.0985887885       -0.0000093155
 C          2.4442059390       -1.1333161553       -0.0009228018
 H         -2.4687985579       -2.1856245910       -0.0061615973
 H         -2.9647854263       -0.7240203811       -0.8818693702
 H         -2.9614927956       -0.7340805021        0.8880074919
 H          2.6167252761       -1.7619191945        0.8729352480
 H          3.1401345444       -0.2998100405        0.0208017731
 H          2.6284570222       -1.7249160687       -0.8981173149
 C          1.6433219555        1.8061831125        0.0001613762
 C         -1.6598164580        1.7809512614       -0.0003723644
 H         -2.2998784460        1.7320449462        0.8797119848
 H         -2.2976885394        1.7334893665       -0.8821434333
 H         -1.1473652193        2.7371054591        0.0009079802
 H          2.2832524122        1.7776948140        0.8811688964
 H          1.1014951445        2.7463117928        0.0059042306
 H          2.2752688576        1.7835400652       -0.8868187010
 H          0.0087845293       -2.4850389912        0.0004977928
  22
        -27.11073186
 N         -1.0761489880       -0.6469144409        0.0001004314
 C          0.0089826971       -1.4142002462       -0.0000377392
 N          1.0982485940       -0.6446162488       -0.0003854515
 C          0.6988965639        0.6678966279       -0.0002788010
 C         -0.6767585521        0.6630118364       -0.0000160974
 C         -2.4402744625       -1.0985785671       -0.0002053306
 C          2.4391491025       -1.1734552259        0.0005188894
 H         -2.9596205802       -0.7250977150        0.8830961887
 H         -2.4675847277       -2.1855388425        0.0026949238
 H         -2.9577185017       -0.7298903191       -0.8866528174
 H          2.5934091920       -1.8011509490       -0.8773993063
 H          2.6034780340       -1.7742385815        0.8954402824
 H          3.1659261321       -0.3668495819       -0.0160082052
 C          1.5971312510        1.8482915079       -0.0002333001
 C         -1.6360730254        1.7897824958        0.0003918610
 H         -1.1031387587        2.7347872319       -0.0005269950
 H         -2.2755758436        1.7527720462        0.8814860806
 H         -2.2773059396        1.7519875479       -0.8793859513
 H          1.4109493893        2.4605083194       -0.8813291749
 H          2.6448190005        1.5683510520        0.0021642887
 H          1.4078862643        2.4625480915        0.8787451866
 H          0.0139732790       -2.4862262668       -0.0000257883
