  22
        -27.11370929
 N         -1.0843933858       -0.6465027579        0.0000342321
 C          0.0000056907       -1.4168456662        0.0000244332
 N          1.0843993794       -0.6465031921        0.0000331551
 C          0.6866821752        0.6672850318        0.0000503959
 C         -0.6866736239        0.6672829881        0.0000260812
 C         -2.4486537142       -1.0985131637       -0.0001959976
 C          2.4486452271       -1.0985143885        0.0001105339
 H         -2.9676600099       -0.7284338826        0.8847539284
 H         -2.4751553640       -2.1855099659       -0.0002701355
 H         -2.9673796200       -0.7282968511       -0.8852530791
 H          2.9671650424       -0.7296615358       -0.8856401574
 H          2.4751433038       -2.1854978789        0.0016254877
 H          2.9678594612       -0.7270891885        0.8843571743
 C          1.6594114760        1.7825363035       -0.0002462046
 C         -1.6594142717        1.7825355236        0.0002098301
 H         -1.1421079377        2.7361465383        0.0004816894
 H         -2.2987124964        1.7366495415        0.8810423413
 H         -2.2985291112        1.7371350988       -0.8808193672
 H          1.1421206340        2.7361628207       -0.0012816263
 H          2.2990624562        1.7361988187       -0.8807381336
 H          2.2980780464        1.7376497936        0.8810485462
 H         -0.0000029626       -2.4889571639        0.0000062515
