  16
        -20.83959755
 N         -1.0848099566       -0.1063130977        0.0003522225
 C          0.0000010748       -0.8752189775        0.0002609794
 N          1.0848128695       -0.1063129173        0.0000341961
 H          0.0000160877       -1.9481895442        0.0003898763
 C          0.6810896934        1.1938570179       -0.0000710949
 C         -0.6810929283        1.1938547923        0.0000534221
 C         -2.4518310620       -0.5521345858       -0.0003186588
 C          2.4518281161       -0.5521285914       -0.0001860798
 H         -2.9694015822       -0.1680229366        0.8791584979
 H         -2.4861655814       -1.6389310473        0.0103709452
 H         -2.9629807277       -0.1858628609       -0.8911943831
 H          2.9653484249       -0.1792362845       -0.8868590009
 H          2.4861646854       -1.6389481529        0.0025609250
 H          2.9670632269       -0.1746492519        0.8835153036
 H          1.3713529968        2.0119447402       -0.0001963196
 H         -1.3713771628        2.0119265063       -0.0000004222
