  16
  -20.7608046000000       6.224709478682759E-002 !gc
 N         -1.0860303950       -0.1066676055        0.0001526177
 C          0.0000401691       -0.8745263794        0.0000760170
 N          1.0860492541       -0.1065916464       -0.0000248605
 H          0.0000363608       -1.9476879314        0.0001349905
 C          0.6808983980        1.1934213226       -0.0000361888
 C         -0.6809530695        1.1933796195        0.0000274459
 C         -2.4535603892       -0.5517621145       -0.0001148520
 C          2.4535550114       -0.5517610147       -0.0000417658
 H         -2.9680383544       -0.1806274161       -0.8872256713
 H         -2.9706946193       -0.1732009129        0.8822557348
 H         -2.4908788456       -1.6385855455        0.0043363028
 H          2.4907960368       -1.6386088898       -0.0002508114
 H          2.9693645556       -0.1771277360        0.8847915484
 H          2.9694297639       -0.1767944461       -0.8847005210
 H          1.3709154641        2.0126395015       -0.0000758199
 H         -1.3709555352        2.0126066269        0.0000235117
  16
  -20.7608046000000       6.224709478682759E-002 !gc
 N         -1.0860280470       -0.1066645772        0.0001567540
 C          0.0000376694       -0.8745138319        0.0002274793
 N          1.0860583691       -0.1065625867        0.0001398859
 H          0.0001226971       -1.9476685823        0.0004264853
 C          0.6809022681        1.1934425027        0.0000679340
 C         -0.6809550360        1.1933854709       -0.0000741176
 C         -2.4535578008       -0.5517875387       -0.0001856827
 C          2.4535520099       -0.5518009228       -0.0002407756
 H         -2.4908374824       -1.6386095867        0.0021301166
 H         -2.9685561059       -0.1788807051       -0.8862512754
 H         -2.9702334620       -0.1750443750        0.8832460097
 H          2.9697995426       -0.1767642268        0.8841874844
 H          2.9690505309       -0.1772745048       -0.8853396550
 H          2.4906927589       -1.6386520187        0.0000314249
 H          1.3707700280        2.0127815374        0.0000165753
 H         -1.3709809549        2.0125866866       -0.0001246532
  16
  -20.7608045800000       6.224577740956705E-002 !gc
 N         -1.0860392228       -0.1066473290        0.0000809628
 C          0.0000171004       -0.8745261958        0.0001718345
 N          1.0860521189       -0.1066076414        0.0001573922
 H          0.0000162754       -1.9476809568        0.0002566019
 C          0.6809101510        1.1934206092        0.0000068007
 C         -0.6809395960        1.1933958068       -0.0000142701
 C         -2.4535633517       -0.5517918237       -0.0001330373
 C          2.4535639491       -0.5517505949       -0.0001958519
 H         -2.9679531068       -0.1812200438       -0.8875537295
 H         -2.9708707784       -0.1726809797        0.8819369550
 H         -2.4908330121       -1.6386152406        0.0049699783
 H          2.9677012717       -0.1817623954       -0.8879849077
 H          2.4908444676       -1.6385657826        0.0055994231
 H          2.9711158728       -0.1721366621        0.8814541471
 H          1.3709088931        2.0126533809        0.0000327454
 H         -1.3709691085        2.0126057119       -0.0000630018
  16
  -20.7608045700000       6.224511873162602E-002 !md1
 N         -1.0860427968       -0.1066220495       -0.0001945262
 C          0.0000062354       -0.8745253854       -0.0003288176
 N          1.0860461006       -0.1066112184       -0.0001828600
 H          0.0000385848       -1.9476797820       -0.0005549884
 C          0.6809136391        1.1934145201        0.0000147770
 C         -0.6809356343        1.1934086554       -0.0000276280
 C         -2.4535425183       -0.5518184994        0.0003113340
 C          2.4535561003       -0.5517542486        0.0002712755
 H         -2.4907811873       -1.6386188408       -0.0057441170
 H         -2.9713069743       -0.1719753242       -0.8811137686
 H         -2.9674614468       -0.1820920673        0.8883117426
 H          2.9706907928       -0.1735287600       -0.8821926104
 H          2.4907867794       -1.6385375991       -0.0038238236
 H          2.9680557510       -0.1803094595        0.8872522877
 H          1.3708790719        2.0126559938        0.0001382550
 H         -1.3709213327        2.0126524962        0.0001002699
  16
  -20.7608045700000       6.224511873162602E-002 !gc
 N         -1.0860384049       -0.1066326912        0.0001155448
 C          0.0000183578       -0.8745133257        0.0002232791
 N          1.0860505978       -0.1065918496        0.0002240284
 H          0.0000403531       -1.9476681151        0.0003704126
 C          0.6809087546        1.1934306332        0.0000172452
 C         -0.6809476299        1.1934025757       -0.0000302189
 C         -2.4535578587       -0.5518123617       -0.0001796084
 C          2.4535606284       -0.5517779639       -0.0002639379
 H         -2.9707632737       -0.1732400370        0.8821431392
 H         -2.4907895412       -1.6386436160        0.0043676622
 H         -2.9680541384       -0.1808121858       -0.8873526016
 H          2.4908015663       -1.6386137830        0.0069467852
 H          2.9715975466       -0.1709655295        0.8806167031
 H          2.9672422102       -0.1830034582       -0.8888573778
 H          1.3708846671        2.0126809175       -0.0000430730
 H         -1.3709173375        2.0126573726       -0.0001311724
  16
  -20.7608045500000       6.224380139618606E-002 !gc
 N         -1.0860451837       -0.1066300677       -0.0003709972
 C          0.0000020337       -0.8745263727       -0.0001580198
 N          1.0860401525       -0.1066256775        0.0001227117
 H          0.0000059094       -1.9476792442       -0.0003388744
 C          0.6809164981        1.1934127228        0.0001417209
 C         -0.6809326305        1.1934082824       -0.0001340433
 C         -2.4535552798       -0.5518059703        0.0003231302
 C          2.4535743034       -0.5517349714        0.0000049343
 H         -2.4908122259       -1.6386160926       -0.0081876786
 H         -2.9720629021       -0.1699178784       -0.8797864210
 H         -2.9667434743       -0.1841174749        0.8896417190
 H          2.4908739299       -1.6385682074        0.0045013609
 H          2.9705827277       -0.1731793897        0.8824366530
 H          2.9682029438       -0.1806381360       -0.8870299356
 H          1.3709215433        2.0126364467        0.0002988970
 H         -1.3709572245        2.0126175958       -0.0002032075
  16
  -20.7608045100000       6.224116680917852E-002 !gc
 N         -1.0860372255       -0.1066494085       -0.0000576045
 C          0.0000090835       -0.8745392097        0.0002480525
 N          1.0860405030       -0.1066242058        0.0004449431
 H          0.0000361761       -1.9476962130        0.0005261806
 C          0.6809088180        1.1934144753        0.0001362332
 C         -0.6809358284        1.1934004505       -0.0001550892
 C         -2.4535581986       -0.5517821982       -0.0000892713
 C          2.4535697133       -0.5517295133       -0.0004157066
 H         -2.9689975087       -0.1782800222        0.8854410303
 H         -2.4908499008       -1.6386163156       -0.0017141693
 H         -2.9697423408       -0.1755889487       -0.8840316562
 H          2.9730235121       -0.1670265307        0.8778878235
 H          2.9657398415       -0.1868256628       -0.8914822194
 H          2.4908979985       -1.6384998600        0.0114426870
 H          1.3709308208        2.0126245822        0.0001776769
 H         -1.3710077333        2.0125720067       -0.0003437179
  16
  -20.7608043900000       6.223326371722040E-002 !md2
 N         -1.0860319369       -0.1066406775       -0.0001978276
 C          0.0000216572       -0.8745255427        0.0002435950
 N          1.0860513769       -0.1066049733        0.0006070806
 H          0.0000264338       -1.9476804711        0.0004921407
 C          0.6809138647        1.1934285520        0.0000805642
 C         -0.6809323952        1.1934034580       -0.0001061534
 C         -2.4535405916       -0.5518045519       -0.0000427071
 C          2.4535223143       -0.5517540318       -0.0004739479
 H         -2.9710393397       -0.1719330994       -0.8816238896
 H         -2.9677264383       -0.1820750252        0.8878293445
 H         -2.4907993386       -1.6386257783       -0.0061259720
 H          2.9742751474       -0.1633250930        0.8753693103
 H          2.9643690740       -0.1906948813       -0.8938592534
 H          2.4908401392       -1.6384485240        0.0159468564
 H          1.3709315220        2.0126431413        0.0000385056
 H         -1.3709668079        2.0126062729       -0.0001954374
  16
  -20.7608043300000       6.222931254744392E-002 !md6
 N         -1.0860337564       -0.1066129502       -0.0007504594
 C          0.0000167636       -0.8745113124       -0.0007375562
 N          1.0860515365       -0.1065908077       -0.0001782375
 H         -0.0000432830       -1.9476593480       -0.0014152993
 C          0.6809066693        1.1934357097        0.0002371770
 C         -0.6809333695        1.1934145057       -0.0002378754
 C         -2.4535700415       -0.5518379907        0.0008898086
 C          2.4535608656       -0.5517845285        0.0004815676
 H         -2.9639027800       -0.1913946346        0.8947343602
 H         -2.4909219927       -1.6384347256       -0.0161387089
 H         -2.9748713311       -0.1628893604       -0.8742814031
 H          2.9689122953       -0.1802091868       -0.8859650793
 H          2.4907960049       -1.6386369072        0.0043544842
 H          2.9699789288       -0.1737609323        0.8835612475
 H          1.3709787787        2.0126154037        0.0006424807
 H         -1.3709459483        2.0126294295       -0.0001308802
  16
  -20.7604535700000       4.293355675706543E-002 !md4
 N         -1.0876013692       -0.1001590972        0.0031379238
 C         -0.0019624459       -0.8716202367        0.0024908236
 N          1.0850516048       -0.1061488518        0.0006589140
 H         -0.0071694256       -1.9447732855        0.0042138189
 C          0.6833977636        1.1944212436       -0.0007127490
 C         -0.6792980100        1.1970597225        0.0005925911
 C         -2.4510799971       -0.5608312861       -0.0032160607
 C          2.4513429221       -0.5546139910       -0.0017799283
 H         -3.1213577770        0.2879926848        0.1096643687
 H         -2.6199464721       -1.2584905273        0.8169409807
 H         -2.6775844094       -1.0665132133       -0.9428646507
 H          2.9791008332       -0.1505598418        0.8625395222
 H          2.9566583033       -0.2118331362       -0.9054585454
 H          2.4863500679       -1.6408386791        0.0349608159
 H          1.3749789387        2.0122073653       -0.0017720331
 H         -1.3641994328        2.0204914916        0.0002969940
  16
  -20.7604455000000       4.256848099101679E-002 !gc
 N         -1.0850358276       -0.1061580456        0.0006011510
 C          0.0020717358       -0.8715571278       -0.0006475937
 N          1.0876377473       -0.1000102240       -0.0015851980
 H          0.0072115103       -1.9447148360       -0.0011191113
 C          0.6792449025        1.1971211821       -0.0005881996
 C         -0.6834889905        1.1944079697        0.0006145774
 C         -2.4513576922       -0.5547073021        0.0000093148
 C          2.4510755137       -0.5609488080        0.0012878082
 H         -2.9644027119       -0.1914630729       -0.8912356575
 H         -2.9716915865       -0.1703933581        0.8779605578
 H         -2.4860409917       -1.6415446186        0.0126540349
 H          3.1225864898        0.2928015169       -0.0504370537
 H          2.6348422117       -1.2092457442       -0.8556832773
 H          2.6613993081       -1.1211760094        0.9131167240
 H          1.3642777959        2.0204733095       -0.0008225581
 H         -1.3750903908        2.0121907418        0.0011868705
  16
  -20.7604441300000       4.250681302930245E-002 !md6
 N         -1.0876578064       -0.0999768006        0.0009190322
 C         -0.0020483638       -0.8715489505        0.0005703458
 N          1.0850172697       -0.1061496800       -0.0000592243
 H         -0.0072926977       -1.9447043522        0.0009558160
 C          0.6834827765        1.1944289960       -0.0002785787
 C         -0.6792325519        1.1971737763        0.0002501387
 C         -2.4510495733       -0.5610928827       -0.0008482036
 C          2.4513361960       -0.5546625717       -0.0002918553
 H         -2.6560934944       -1.1388032332       -0.9027942252
 H         -3.1228791887        0.2933723933        0.0309624879
 H         -2.6397716752       -1.1928419866        0.8674832716
 H          2.9690057871       -0.1784423851        0.8827844134
 H          2.9671238156       -0.1833266580       -0.8865502385
 H          2.4860188585       -1.6415946401        0.0026265272
 H          1.3750436938        2.0122521526       -0.0005716202
 H         -1.3641146858        2.0206449996        0.0002829968
  16
  -20.7604434800000       4.247758576339974E-002 !gc
 N         -1.0850025391       -0.1061968958       -0.0000152856
 C          0.0021119326       -0.8715576978       -0.0003323352
 N          1.0876537526       -0.0999475033       -0.0005042023
 H          0.0072456699       -1.9447220362       -0.0005761609
 C          0.6791981570        1.1971773688       -0.0001410452
 C         -0.6835184168        1.1943997592        0.0001536828
 C         -2.4513382783       -0.5546701105        0.0001979518
 C          2.4510513591       -0.5610269984        0.0004730840
 H         -2.9671870785       -0.1830211506        0.8863127564
 H         -2.4860541143       -1.6416022674       -0.0022767203
 H         -2.9688532948       -0.1787439019       -0.8830423491
 H          2.6522209024       -1.1514706951        0.8949467577
 H          3.1229113951        0.2937988406       -0.0165545708
 H          2.6435405181       -1.1804416240       -0.8759642080
 H          1.3642025163        2.0205526448       -0.0001522431
 H         -1.3751347089        2.0121700357        0.0003391669
  16
  -20.7604433100000       4.246994502512232E-002 !gc
 N         -1.0876619034       -0.0999248549       -0.0003156484
 C         -0.0020481916       -0.8715080032       -0.0001568049
 N          1.0850244176       -0.1060858896        0.0001169819
 H         -0.0072472090       -1.9446587884       -0.0002527436
 C          0.6834798596        1.1944806540        0.0001047335
 C         -0.6792513649        1.1971946200       -0.0001060062
 C         -2.4510206789       -0.5611747758        0.0002828610
 C          2.4513077522       -0.5547689188        0.0000094941
 H         -2.6503681478       -1.1575624051        0.8911628621
 H         -2.6452189801       -1.1747249530       -0.8799107370
 H         -3.1230467381        0.2936614564       -0.0098082773
 H          2.9675105197       -0.1827614117       -0.8857008277
 H          2.4858461778       -1.6416858387        0.0020122795
 H          2.9687030065       -0.1794025104        0.8835805268
 H          1.3751216685        2.0122344644        0.0002138210
 H         -1.3640507552        2.0207391783       -0.0001362175
  16
  -20.7604431900000       4.246455239034059E-002 !input
 N         -1.0849673207       -0.1060752957        0.0000037703
 C          0.0020706334       -0.8714445155        0.0000013022
 N          1.0876084636       -0.0998603876       -0.0000040906
 H          0.0073003346       -1.9445646029        0.0000024938
 C          0.6791967386        1.1972334311       -0.0000037305
 C         -0.6834849821        1.1944764195        0.0000014463
 C         -2.4512527542       -0.5548744247        0.0000096199
 C          2.4509871282       -0.5611844151       -0.0000085493
 H         -2.4857118753       -1.6417904227        0.0000094413
 H         -2.9681282304       -0.1812643005       -0.8846329447
 H         -2.9681201871       -0.1812649975        0.8846571997
 H          2.6477191150       -1.1661818103        0.8855818548
 H          3.1231689720        0.2935758016       -0.0000095167
 H          2.6477141239       -1.1661798801       -0.8856013973
 H          1.3642100456        2.0205768549       -0.0000070218
 H         -1.3752636649        2.0120929803        0.0000032863
  16
  -20.7604427600000       4.244523440452037E-002 !gc
 N         -1.0850182150       -0.1061866770        0.0007845067
 C          0.0021117459       -0.8715259659        0.0004955868
 N          1.0876634086       -0.0999279784       -0.0000523582
 H          0.0072882732       -1.9446931527        0.0008597718
 C          0.6792058231        1.1971970789       -0.0002830069
 C         -0.6835100423        1.1944114962        0.0002613590
 C         -2.4513408961       -0.5547143891       -0.0007378904
 C          2.4510475531       -0.5610680730       -0.0002394834
 H         -2.9605815282       -0.2016571232       -0.8982940429
 H         -2.9754028814       -0.1604610631        0.8704955821
 H         -2.4861571193       -1.6413486882        0.0239720561
 H          2.6476535238       -1.1670276145        0.8847189087
 H          3.1229965024        0.2938717352        0.0007917530
 H          2.6480298549       -1.1651189214       -0.8864358131
 H          1.3641581979        2.0206165563       -0.0006123111
 H         -1.3751217358        2.0121890187        0.0003288509
  16
  -20.7604367800000       4.217748878377704E-002 !gc
 N         -1.0876479878       -0.0999562587       -0.0004090849
 C         -0.0020231307       -0.8714643045        0.0016700047
 N          1.0850490071       -0.1060215912        0.0028982951
 H         -0.0071353356       -1.9446123610        0.0029550337
 C          0.6834843651        1.1944525582        0.0008334161
 C         -0.6792943844        1.1971755172       -0.0008993805
 C         -2.4510188806       -0.5611441404       -0.0006685144
 C          2.4512949305       -0.5548051696       -0.0026368112
 H         -2.6489000737       -1.1633550654        0.8865775832
 H         -2.6466774685       -1.1688271635       -0.8846160671
 H         -3.1229862102        0.2937970545       -0.0041101934
 H          2.4875723279       -1.6378617455        0.0896240406
 H          2.9947665687       -0.1062272083        0.8290450574
 H          2.9394756071       -0.2603647719       -0.9328031888
 H          1.3750404173        2.0122830215        0.0009372140
 H         -1.3641497097        2.0206589232       -0.0019278483
  16
  -20.7604366800000       4.217302581991610E-002 !gc
 N         -1.0876301658       -0.0999794988       -0.0010103975
 C         -0.0020028528       -0.8714718521        0.0014120686
 N          1.0850567194       -0.1059902841        0.0031039699
 H         -0.0070978649       -1.9446224726        0.0024610159
 C          0.6834645011        1.1944793465        0.0010549414
 C         -0.6793065396        1.1971654055       -0.0011104414
 C         -2.4510102961       -0.5611303369       -0.0001726373
 C          2.4512775835       -0.5548477496       -0.0026181837
 H         -3.1228914440        0.2936113475       -0.0235733346
 H         -2.6541684131       -1.1460982529        0.8974736280
 H         -2.6415485621       -1.1856684394       -0.8732657285
 H          2.4876531562       -1.6375433167        0.0936587656
 H          2.9958628449       -0.1031364503        0.8266316311
 H          2.9382441760       -0.2639127797       -0.9345360931
 H          1.3749972119        2.0123281914        0.0013855126
 H         -1.3641554874        2.0206548853       -0.0022378116
  16
  -20.7600797300000       2.890625967510769E-002 !gc
 N         -1.0866912535       -0.0996191057       -0.0022416637
 C         -0.0000751987       -0.8687447856        0.0004080336
 N          1.0865827016       -0.0998436852        0.0028389770
 H         -0.0000891964       -1.9419071966        0.0007404095
 C          0.6818807081        1.1978794846        0.0012856635
 C         -0.6817735804        1.1980472910       -0.0013056297
 C         -2.4490212445       -0.5636413029        0.0010906836
 C          2.4490626510       -0.5633338444       -0.0019007065
 H         -3.1223968173        0.2875638674       -0.0663216983
 H         -2.6622226904       -1.1108157365        0.9201713566
 H         -2.6270791000       -1.2251074700       -0.8468705565
 H          3.1217375594        0.2863082773        0.0890233982
 H          2.6687589658       -1.0894851242       -0.9317532253
 H          2.6215891352       -1.2437476664        0.8319872754
 H          1.3685473679        2.0197823787        0.0019606072
 H         -1.3682106163        2.0201183504       -0.0022099977
  16
  -20.7600729400000       2.869930844392829E-002 !gc
 N         -1.0866511062       -0.0996126961       -0.0015049708
 C         -0.0000247961       -0.8687121273        0.0002144974
 N          1.0866077930       -0.0996793118        0.0018272386
 H         -0.0000058122       -1.9418926399        0.0004308643
 C          0.6818213093        1.1980207605        0.0008809096
 C         -0.6817962906        1.1980776981       -0.0008883017
 C         -2.4489534580       -0.5637087957        0.0007847712
 C          2.4489740334       -0.5635582250       -0.0012045389
 H         -3.1226703609        0.2887033263       -0.0440720907
 H         -2.6560669642       -1.1306816663        0.9090874274
 H         -2.6327605204       -1.2067909968       -0.8601352993
 H          2.6597128781       -1.1189990785       -0.9158957615
 H          2.6295859497       -1.2174299158        0.8521239092
 H          3.1223770926        0.2883301173        0.0566392821
 H          1.3684149531        2.0199829777        0.0013708998
 H         -1.3682331423        2.0201573065       -0.0014934908
