  16
        -20.76080461
 C          0.6808997077       -1.1934258741        0.0000093703
 C         -0.6809427927       -1.1933930134       -0.0000082304
 N          1.0860528183        0.1066117391        0.0000304936
 N         -1.0860325536        0.1066623624       -0.0000664540
 C          0.0000281986        0.8745334577       -0.0000046543
 H          1.3708985209       -2.0126557092        0.0000142029
 H         -1.3709880865       -2.0125829092        0.0000049288
 C          2.4535597342        0.5517568302       -0.0000015051
 C         -2.4535754185        0.5517556666        0.0000348520
 H          2.9691475752        0.1779807251        0.8853410463
 H          2.4908340091        1.6385760002       -0.0012095846
 H          2.9697079732        0.1759245133       -0.8841170081
 H          0.0000533481        1.9476922912       -0.0001487847
 H         -2.9701453815        0.1746022049       -0.8832927568
 H         -2.4908509889        1.6386599922       -0.0027197720
 H         -2.9685742785        0.1792394841        0.8862719585
