  20
        -22.78816745
 N         -1.1965324132       -0.0920735352       -0.0176873259
 C         -0.0000091872       -0.6285825186       -0.0000150954
 N          1.1965075953       -0.0920540211        0.0174220063
 H         -0.0000083771       -1.7143267210        0.0000125254
 C         -2.3603947257       -0.9463470958        0.1141570512
 C          2.3603902078       -0.9463652079       -0.1140133530
 H         -2.9571307564       -0.9097517310       -0.7986839399
 H         -2.9764731028       -0.5953104545        0.9428092482
 H         -2.0775211251       -1.9778237070        0.3063872005
 H          2.0775701734       -1.9775234658       -0.3081564840
 H          2.9559140473       -0.9111843678        0.7996741124
 H          2.9776359341       -0.5942527358       -0.9413263079
 C         -1.5286083290        1.3113482010       -0.1658616378
 H         -1.6210306135        1.8009223342        0.8053610419
 H         -2.4935957484        1.3830546074       -0.6659096021
 H         -0.7980216881        1.8314783607       -0.7766899489
 C          1.5286402823        1.3113300285        0.1659408876
 H          2.4934979357        1.3828658087        0.6662652429
 H          0.7979405798        1.8314341785        0.7766538718
 H          1.6213501736        1.8010512301       -0.8051867848
